
 OpenBabel03142011073D

 29 30  0  0  0  0  0  0  0  0999 V2000
    9.9350   -0.5190   25.0990 C   0  0  0  0  0  0  0  0  0  0  0  0
   11.1510   -0.4990   24.3140 N   0  0  0  0  0  0  0  0  0  0  0  0
   11.4740   -1.6890   23.5780 C   0  0  0  0  0  0  0  0  0  0  0  0
   12.6970   -1.6430   22.6890 C   0  0  0  0  0  0  0  0  0  0  0  0
   13.6710   -0.5150   22.9800 C   0  0  0  0  0  0  0  0  0  0  0  0
   12.9220    0.8320   23.2050 C   0  0  0  0  0  0  0  0  0  0  0  0
   13.4770    2.0460   22.7480 C   0  0  0  0  0  0  0  0  0  0  0  0
   12.7890    3.2420   22.9510 C   0  0  0  0  0  0  0  0  0  0  0  0
   11.5420    3.2030   23.6130 C   0  0  0  0  0  0  0  0  0  0  0  0
   10.9850    2.0060   24.0670 C   0  0  0  0  0  0  0  0  0  0  0  0
   11.6830    0.7970   23.8590 C   0  0  0  0  0  0  0  0  0  0  0  0
   10.6120    4.7160   23.9110 S   0  0  0  0  0  0  0  0  0  0  0  0
   10.1620    4.6860   25.3040 O   0  0  0  0  0  0  0  0  0  0  0  0
    9.3350    4.6900   23.1840 O   0  0  0  0  0  0  0  0  0  0  0  0
   11.5660    6.0820   23.5380 N   0  0  0  0  0  0  0  0  0  0  0  0
    9.6868   -1.5300   25.3465 H   0  0  0  0  0  0  0  0  0  0  0  0
    9.1378   -0.0844   24.5329 H   0  0  0  0  0  0  0  0  0  0  0  0
   10.0815    0.0426   25.9979 H   0  0  0  0  0  0  0  0  0  0  0  0
   10.6339   -1.9214   22.9575 H   0  0  0  0  0  0  0  0  0  0  0  0
   11.7037   -2.4204   24.3244 H   0  0  0  0  0  0  0  0  0  0  0  0
   12.3658   -1.5404   21.6768 H   0  0  0  0  0  0  0  0  0  0  0  0
   13.2321   -2.5505   22.8761 H   0  0  0  0  0  0  0  0  0  0  0  0
   14.3394   -0.4085   22.1512 H   0  0  0  0  0  0  0  0  0  0  0  0
   14.2111   -0.7554   23.8718 H   0  0  0  0  0  0  0  0  0  0  0  0
   14.3890    2.0489   22.2651 H   0  0  0  0  0  0  0  0  0  0  0  0
   13.1833    4.1379   22.6239 H   0  0  0  0  0  0  0  0  0  0  0  0
   10.0727    2.0052   24.5495 H   0  0  0  0  0  0  0  0  0  0  0  0
   12.4354    6.0451   24.0701 H   0  0  0  0  0  0  0  0  0  0  0  0
   11.0546    6.9305   23.7808 H   0  0  0  0  0  0  0  0  0  0  0  0
  1  2  1  0  0  0  0
  1 16  1  0  0  0  0
  1 17  1  0  0  0  0
  1 18  1  0  0  0  0
  2  3  1  0  0  0  0
  2 11  1  0  0  0  0
  3  4  1  0  0  0  0
  3 19  1  0  0  0  0
  3 20  1  0  0  0  0
  4  5  1  0  0  0  0
  4 21  1  0  0  0  0
  4 22  1  0  0  0  0
  5  6  1  0  0  0  0
  5 23  1  0  0  0  0
  5 24  1  0  0  0  0
  6  7  1  0  0  0  0
  7  8  2  0  0  0  0
  7 25  1  0  0  0  0
  8  9  1  0  0  0  0
  8 26  1  0  0  0  0
  9 10  2  0  0  0  0
  9 12  1  0  0  0  0
 10 27  1  0  0  0  0
 11  6  2  0  0  0  0
 11 10  1  0  0  0  0
 12 13  2  0  0  0  0
 12 14  2  0  0  0  0
 12 15  1  0  0  0  0
 15 28  1  0  0  0  0
 15 29  1  0  0  0  0
M  END
$$$$
