(selection)
 OpenBabel03112014033D

 36 37  0  0  1  0  0  0  0  0999 V2000
    9.7510    2.1045   21.6218 C   0  0  0  0  0  0  0  0  0  0  0  0
   10.3129    2.5124   23.0081 C   0  0  1  0  0  0  0  0  0  0  0  0
    9.0976    3.1219   23.8104 C   0  0  0  0  0  0  0  0  0  0  0  0
    8.5834    4.3877   23.2775 N   0  3  0  0  0  0  0  0  0  0  0  0
   10.7797    1.2356   23.7951 C   0  0  0  0  0  0  0  0  0  0  0  0
   11.8521    0.3645   23.1671 C   0  0  0  0  0  0  0  0  0  0  0  0
   13.2083    0.6658   23.3303 C   0  0  0  0  0  0  0  0  0  0  0  0
   14.1572   -0.1680   22.7530 C   0  0  0  0  0  0  0  0  0  0  0  0
   13.8528   -1.2653   22.0311 N   0  0  0  0  0  0  0  0  0  0  0  0
   12.5415   -1.5391   21.8775 C   0  0  0  0  0  0  0  0  0  0  0  0
   11.5204   -0.7705   22.4214 C   0  0  0  0  0  0  0  0  0  0  0  0
   11.5035    3.4946   22.9024 C   0  0  0  0  0  0  0  0  0  0  0  0
   11.8402    4.3687   23.9542 C   0  0  0  0  0  0  0  0  0  0  0  0
   12.9660    5.1938   23.8821 C   0  0  0  0  0  0  0  0  0  0  0  0
   13.7970    5.1487   22.7687 C   0  0  0  0  0  0  0  0  0  0  0  0
   13.4907    4.2927   21.7180 C   0  0  0  0  0  0  0  0  0  0  0  0
   12.3531    3.4831   21.7816 C   0  0  0  0  0  0  0  0  0  0  0  0
    8.2856    2.3948   23.8003 H   0  0  0  0  0  0  0  0  0  0  0  0
    9.4082    3.2808   24.8430 H   0  0  0  0  0  0  0  0  0  0  0  0
    9.9008    0.6090   23.9466 H   0  0  0  0  0  0  0  0  0  0  0  0
   11.1371    1.5558   24.7738 H   0  0  0  0  0  0  0  0  0  0  0  0
   13.5129    1.5335   23.8966 H   0  0  0  0  0  0  0  0  0  0  0  0
   15.2000    0.0769   22.8904 H   0  0  0  0  0  0  0  0  0  0  0  0
   12.2689   -2.4080   21.2969 H   0  0  0  0  0  0  0  0  0  0  0  0
   10.4869   -1.0453   22.2707 H   0  0  0  0  0  0  0  0  0  0  0  0
   11.2156    4.4021   24.8346 H   0  0  0  0  0  0  0  0  0  0  0  0
   13.1911    5.8689   24.6945 H   0  0  0  0  0  0  0  0  0  0  0  0
   14.6754    5.7752   22.7206 H   0  0  0  0  0  0  0  0  0  0  0  0
   14.1328    4.2528   20.8505 H   0  0  0  0  0  0  0  0  0  0  0  0
   12.1210    2.8335   20.9506 H   0  0  0  0  0  0  0  0  0  0  0  0
   10.5497    1.6738   21.0179 H   0  0  0  0  0  0  0  0  0  0  0  0
    8.9582    1.3682   21.7537 H   0  0  0  0  0  0  0  0  0  0  0  0
    9.3496    2.9845   21.1192 H   0  0  0  0  0  0  0  0  0  0  0  0
    7.8120    4.7048   23.8472 H   0  0  0  0  0  0  0  0  0  0  0  0
    9.3178    5.0809   23.2897 H   0  0  0  0  0  0  0  0  0  0  0  0
    8.2666    4.2495   22.3285 H   0  0  0  0  0  0  0  0  0  0  0  0
  2  1  1  6  0  0  0
  2  3  1  0  0  0  0
  2  5  1  0  0  0  0
  2 12  1  0  0  0  0
  3  4  1  0  0  0  0
  5  6  1  0  0  0  0
  6  7  2  0  0  0  0
  6 11  1  0  0  0  0
  7  8  1  0  0  0  0
  8  9  2  0  0  0  0
  9 10  1  0  0  0  0
 10 11  2  0  0  0  0
 12 13  2  0  0  0  0
 12 17  1  0  0  0  0
 13 14  1  0  0  0  0
 14 15  2  0  0  0  0
 15 16  1  0  0  0  0
 16 17  2  0  0  0  0
 18  3  1  0  0  0  0
 19  3  1  0  0  0  0
 20  5  1  0  0  0  0
 21  5  1  0  0  0  0
 22  7  1  0  0  0  0
 23  8  1  0  0  0  0
 24 10  1  0  0  0  0
 25 11  1  0  0  0  0
 26 13  1  0  0  0  0
 27 14  1  0  0  0  0
 28 15  1  0  0  0  0
 29 16  1  0  0  0  0
 30 17  1  0  0  0  0
 31  1  1  0  0  0  0
 32  1  1  0  0  0  0
 33  1  1  0  0  0  0
 34  4  1  0  0  0  0
 35  4  1  0  0  0  0
 36  4  1  0  0  0  0
M  CHG  1   4   1
M  END
$$$$
