(selection)
 OpenBabel03112014033D

 19 19  0  0  0  0  0  0  0  0999 V2000
   13.0201    1.0693   24.5932 O   0  0  0  0  0  0  0  0  0  0  0  0
   12.7390    0.9469   23.4020 C   0  0  0  0  0  0  0  0  0  0  0  0
   12.4516   -0.2963   22.8560 N   0  0  0  0  0  0  0  0  0  0  0  0
   12.0340   -0.4237   21.5329 O   0  0  0  0  0  0  0  0  0  0  0  0
   12.6340    1.9445   22.4722 N   0  0  0  0  0  0  0  0  0  0  0  0
   12.8517    3.3150   22.6081 C   0  0  0  0  0  0  0  0  0  0  0  0
   12.9290    4.1784   21.5143 C   0  0  0  0  0  0  0  0  0  0  0  0
   13.1445    5.5450   21.7054 C   0  0  0  0  0  0  0  0  0  0  0  0
   13.2953    6.0575   22.9912 C   0  0  0  0  0  0  0  0  0  0  0  0
   13.2223    5.2022   24.0897 C   0  0  0  0  0  0  0  0  0  0  0  0
   12.9846    3.8364   23.8985 C   0  0  0  0  0  0  0  0  0  0  0  0
   12.5469   -1.1233   23.4279 H   0  0  0  0  0  0  0  0  0  0  0  0
   12.3573    1.6433   21.5487 H   0  0  0  0  0  0  0  0  0  0  0  0
   12.8215    3.7871   20.5134 H   0  0  0  0  0  0  0  0  0  0  0  0
   13.1943    6.2064   20.8531 H   0  0  0  0  0  0  0  0  0  0  0  0
   13.4682    7.1136   23.1370 H   0  0  0  0  0  0  0  0  0  0  0  0
   13.3492    5.5936   25.0882 H   0  0  0  0  0  0  0  0  0  0  0  0
   12.9033    3.1811   24.7531 H   0  0  0  0  0  0  0  0  0  0  0  0
   11.8361   -1.3444   21.3466 H   0  0  0  0  0  0  0  0  0  0  0  0
  1  2  2  0  0  0  0
  2  3  2  0  0  0  0
  2  5  2  0  0  0  0
  3  4  1  0  0  0  0
  5  6  1  0  0  0  0
  6  7  2  0  0  0  0
  6 11  1  0  0  0  0
  7  8  1  0  0  0  0
  8  9  2  0  0  0  0
  9 10  1  0  0  0  0
 10 11  2  0  0  0  0
 12  3  1  0  0  0  0
 13  5  1  0  0  0  0
 14  7  1  0  0  0  0
 15  8  1  0  0  0  0
 16  9  1  0  0  0  0
 17 10  1  0  0  0  0
 18 11  1  0  0  0  0
 19  4  1  0  0  0  0
M  END
$$$$
