(selection)
 OpenBabel03112014033D

 19 20  0  0  0  0  0  0  0  0999 V2000
   13.5184    6.4738   22.4622 O   0  0  0  0  0  0  0  0  0  0  0  0
   13.0356    5.0027   22.4462 P   0  0  0  0  0  0  0  0  0  0  0  0
   11.5215    5.2670   22.6666 O   0  0  0  0  0  0  0  0  0  0  0  0
   13.5141    4.6288   21.0173 O   0  0  0  0  0  0  0  0  0  0  0  0
   12.4651    3.2640   22.4273 C   0  0  0  0  0  0  0  0  0  0  0  0
   12.7011    2.3589   23.4555 C   0  0  0  0  0  0  0  0  0  0  0  0
   12.1175    1.1689   23.0754 C   0  0  0  0  0  0  0  0  0  0  0  0
   12.0596   -0.0507   23.7457 C   0  0  0  0  0  0  0  0  0  0  0  0
   11.3992   -1.0787   23.0727 C   0  0  0  0  0  0  0  0  0  0  0  0
   11.3054   -2.2841   23.6547 F   0  0  0  0  0  0  0  0  0  0  0  0
   10.8298   -0.9000   21.8051 C   0  0  0  0  0  0  0  0  0  0  0  0
   10.8940    0.3360   21.1525 C   0  0  0  0  0  0  0  0  0  0  0  0
   11.5533    1.3894   21.8094 C   0  0  0  0  0  0  0  0  0  0  0  0
   11.7581    2.6527   21.4241 N   0  0  0  0  0  0  0  0  0  0  0  0
   13.2372    2.5504   24.3733 H   0  0  0  0  0  0  0  0  0  0  0  0
   12.4975   -0.1913   24.7229 H   0  0  0  0  0  0  0  0  0  0  0  0
   10.3333   -1.7297   21.3239 H   0  0  0  0  0  0  0  0  0  0  0  0
   10.4520    0.4759   20.1771 H   0  0  0  0  0  0  0  0  0  0  0  0
   11.4510    3.0758   20.5599 H   0  0  0  0  0  0  0  0  0  0  0  0
  1  2  1  0  0  0  0
  2  3  1  0  0  0  0
  2  4  1  0  0  0  0
  2  5  1  0  0  0  0
  5 14  1  0  0  0  0
  5  6  2  0  0  0  0
  6  7  1  0  0  0  0
  7  8  2  0  0  0  0
  7 13  1  0  0  0  0
  8  9  1  0  0  0  0
  9 10  1  0  0  0  0
  9 11  2  0  0  0  0
 11 12  1  0  0  0  0
 12 13  2  0  0  0  0
 13 14  1  0  0  0  0
 15  6  1  0  0  0  0
 16  8  1  0  0  0  0
 17 11  1  0  0  0  0
 18 12  1  0  0  0  0
 19 14  1  0  0  0  0
M  END
$$$$
