(selection)
 OpenBabel03112014033D

 24 24  0  0  0  0  0  0  0  0999 V2000
   13.7768    5.6342   22.0885 C   0  0  0  0  0  0  0  0  0  0  0  0
   13.6878    4.6217   23.2106 C   0  0  0  0  0  0  0  0  0  0  0  0
   12.3621    3.9301   23.1711 N   0  0  0  0  0  0  0  0  0  0  0  0
   12.4122    2.4838   22.9183 C   0  0  0  0  0  0  0  0  0  0  0  0
   11.3126    1.8929   22.2895 C   0  0  0  0  0  0  0  0  0  0  0  0
   11.3175    0.5105   22.0377 C   0  0  0  0  0  0  0  0  0  0  0  0
   10.1534   -0.0800   21.3329 C   0  0  0  0  0  0  0  0  0  0  0  0
   10.1226   -1.2968   21.1916 O   0  0  0  0  0  0  0  0  0  0  0  0
    9.1949    0.7792   20.8652 N   0  0  0  0  0  0  0  0  0  0  0  0
    8.1214    0.2032   20.1580 O   0  0  0  0  0  0  0  0  0  0  0  0
   12.4255   -0.2520   22.3933 C   0  0  0  0  0  0  0  0  0  0  0  0
   13.4846    0.3727   23.0330 C   0  0  0  0  0  0  0  0  0  0  0  0
   13.4437    1.6936   23.2885 N   0  0  0  0  0  0  0  0  0  0  0  0
   14.4828    3.8849   23.0958 H   0  0  0  0  0  0  0  0  0  0  0  0
   13.8019    5.1310   24.1675 H   0  0  0  0  0  0  0  0  0  0  0  0
   11.4918    4.4238   23.3088 H   0  0  0  0  0  0  0  0  0  0  0  0
   10.4645    2.4951   21.9990 H   0  0  0  0  0  0  0  0  0  0  0  0
    9.2547    1.7755   21.0196 H   0  0  0  0  0  0  0  0  0  0  0  0
   12.4597   -1.3092   22.1753 H   0  0  0  0  0  0  0  0  0  0  0  0
   14.3484   -0.2043   23.3284 H   0  0  0  0  0  0  0  0  0  0  0  0
   14.7452    6.1332   22.1246 H   0  0  0  0  0  0  0  0  0  0  0  0
   13.6659    5.1255   21.1309 H   0  0  0  0  0  0  0  0  0  0  0  0
   12.9831    6.3727   22.2017 H   0  0  0  0  0  0  0  0  0  0  0  0
    7.5145    0.8928   19.8792 H   0  0  0  0  0  0  0  0  0  0  0  0
  1  2  1  0  0  0  0
  2  3  1  0  0  0  0
  3  4  1  0  0  0  0
  4  5  1  0  0  0  0
  4 13  2  0  0  0  0
  5  6  2  0  0  0  0
  6  7  1  0  0  0  0
  6 11  1  0  0  0  0
  7  8  2  0  0  0  0
  7  9  1  0  0  0  0
  9 10  1  0  0  0  0
 11 12  2  0  0  0  0
 12 13  1  0  0  0  0
 14  2  1  0  0  0  0
 15  2  1  0  0  0  0
 16  3  1  0  0  0  0
 17  5  1  0  0  0  0
 18  9  1  0  0  0  0
 19 11  1  0  0  0  0
 20 12  1  0  0  0  0
 21  1  1  0  0  0  0
 22  1  1  0  0  0  0
 23  1  1  0  0  0  0
 24 10  1  0  0  0  0
M  END
$$$$
