hits.sdf
 OpenBabel03112000213D

 15 16  0  0  0  0  0  0  0  0999 V2000
   10.3294   -2.7951   24.8661 C   0  0  0  0  0  0  0  0  0  0  0  0
   11.5272   -2.7370   24.0555 N   0  0  0  0  0  0  0  0  0  0  0  0
   11.7773   -3.8456   23.1777 C   0  0  0  0  0  0  0  0  0  0  0  0
   12.9810   -3.7499   22.2666 C   0  0  0  0  0  0  0  0  0  0  0  0
   14.0134   -2.7081   22.6597 C   0  0  0  0  0  0  0  0  0  0  0  0
   13.3340   -1.3649   23.0602 C   0  0  0  0  0  0  0  0  0  0  0  0
   13.9354   -0.1315   22.7321 C   0  0  0  0  0  0  0  0  0  0  0  0
   13.3093    1.0618   23.0915 C   0  0  0  0  0  0  0  0  0  0  0  0
   12.0769    1.0007   23.7787 C   0  0  0  0  0  0  0  0  0  0  0  0
   11.4742   -0.2155   24.1058 C   0  0  0  0  0  0  0  0  0  0  0  0
   12.1096   -1.4214   23.7396 C   0  0  0  0  0  0  0  0  0  0  0  0
   11.2262    2.5080   24.2759 S   0  0  0  0  0  0  0  0  0  0  0  0
   10.8063    2.3348   25.6679 O   0  0  0  0  0  0  0  0  0  0  0  0
    9.9336    2.6240   23.5863 O   0  0  0  0  0  0  0  0  0  0  0  0
   12.2351    3.8647   24.0379 N   0  0  0  0  0  0  0  0  0  0  0  0
  1  2  1  0  0  0  0
  2  3  1  0  0  0  0
  2 11  1  0  0  0  0
  3  4  1  0  0  0  0
  4  5  1  0  0  0  0
  5  6  1  0  0  0  0
  6  7  1  0  0  0  0
  7  8  2  0  0  0  0
  8  9  1  0  0  0  0
  9 10  2  0  0  0  0
  9 12  1  0  0  0  0
 11  6  2  0  0  0  0
 11 10  1  0  0  0  0
 12 13  2  0  0  0  0
 12 14  2  0  0  0  0
 12 15  1  0  0  0  0
M  END
$$$$
