hits.sdf
 OpenBabel03112000213D

 16 17  0  0  0  0  0  0  0  0999 V2000
    9.7039   -1.1845   20.8421 O   0  0  0  0  0  0  0  0  0  0  0  0
    9.1369   -2.1789   21.1634 C   0  0  0  0  0  0  0  0  0  0  0  0
    9.7777   -3.1006   22.0605 N   0  0  0  0  0  0  0  0  0  0  0  0
   11.0814   -2.7424   22.5349 C   0  0  0  0  0  0  0  0  0  0  0  0
   12.2036   -3.0815   21.7980 C   0  0  0  0  0  0  0  0  0  0  0  0
   13.4572   -2.7150   22.2564 C   0  0  0  0  0  0  0  0  0  0  0  0
   13.5695   -2.0044   23.4417 C   0  0  0  0  0  0  0  0  0  0  0  0
   12.4342   -1.6638   24.1711 C   0  0  0  0  0  0  0  0  0  0  0  0
   11.1837   -2.0320   23.7174 C   0  0  0  0  0  0  0  0  0  0  0  0
    7.8132   -2.5090   20.6807 N   0  0  0  0  0  0  0  0  0  0  0  0
    7.0993   -1.6433   19.7665 C   0  0  0  0  0  0  0  0  0  0  0  0
    5.9299   -1.0308   20.2015 C   0  0  0  0  0  0  0  0  0  0  0  0
    5.2666   -0.2061   19.2985 C   0  0  0  0  0  0  0  0  0  0  0  0
    5.7904   -0.0608   18.0167 C   0  0  0  0  0  0  0  0  0  0  0  0
    6.8988   -0.6706   17.6519 N   0  0  0  0  0  0  0  0  0  0  0  0
    7.5679   -1.4487   18.4737 C   0  0  0  0  0  0  0  0  0  0  0  0
  1  2  2  0  0  0  0
  2  3  2  0  0  0  0
  2 10  2  0  0  0  0
  3  4  1  0  0  0  0
  4  5  2  0  0  0  0
  4  9  1  0  0  0  0
  5  6  1  0  0  0  0
  6  7  2  0  0  0  0
  7  8  1  0  0  0  0
  9  8  2  0  0  0  0
 10 11  1  0  0  0  0
 11 12  2  0  0  0  0
 11 16  1  0  0  0  0
 12 13  1  0  0  0  0
 13 14  2  0  0  0  0
 14 15  1  0  0  0  0
 16 15  2  0  0  0  0
M  END
$$$$
