(selection)
 OpenBabel03112014033D

 25 25  0  0  0  0  0  0  0  0999 V2000
    5.7668   -1.0418   19.1853 C   0  0  0  0  0  0  0  0  0  0  0  0
    6.9732   -1.1845   19.9386 O   0  0  0  0  0  0  0  0  0  0  0  0
    7.7601   -0.0850   19.9759 C   0  0  0  0  0  0  0  0  0  0  0  0
    7.5395    0.9936   19.4511 O   0  0  0  0  0  0  0  0  0  0  0  0
    8.9827   -0.3479   20.7841 C   0  0  0  0  0  0  0  0  0  0  0  0
    9.2437   -1.6039   21.3393 C   0  0  0  0  0  0  0  0  0  0  0  0
   10.4012   -1.8099   22.0844 C   0  0  0  0  0  0  0  0  0  0  0  0
   11.3052   -0.7636   22.2798 C   0  0  0  0  0  0  0  0  0  0  0  0
   11.0665    0.5172   21.7465 C   0  0  0  0  0  0  0  0  0  0  0  0
   12.0241    1.6308   21.9921 C   0  0  0  0  0  0  0  0  0  0  0  0
   12.9563    1.4441   22.9179 N   0  0  0  0  0  0  0  0  0  0  0  0
   11.8918    2.7425   21.2751 N   0  0  0  0  0  0  0  0  0  0  0  0
   12.7164    3.8568   21.4164 O   0  0  0  0  0  0  0  0  0  0  0  0
    9.8940    0.7058   20.9898 C   0  0  0  0  0  0  0  0  0  0  0  0
    8.5466   -2.4152   21.1900 H   0  0  0  0  0  0  0  0  0  0  0  0
   10.6007   -2.7812   22.5124 H   0  0  0  0  0  0  0  0  0  0  0  0
   12.2046   -0.9404   22.8509 H   0  0  0  0  0  0  0  0  0  0  0  0
   11.1516    2.7816   20.5890 H   0  0  0  0  0  0  0  0  0  0  0  0
    9.6901    1.6753   20.5598 H   0  0  0  0  0  0  0  0  0  0  0  0
   12.9968    0.5716   23.4250 H   0  0  0  0  0  0  0  0  0  0  0  0
   13.6253    2.1745   23.1155 H   0  0  0  0  0  0  0  0  0  0  0  0
    5.2060   -1.9760   19.2160 H   0  0  0  0  0  0  0  0  0  0  0  0
    5.1634   -0.2418   19.6142 H   0  0  0  0  0  0  0  0  0  0  0  0
    6.0108   -0.7984   18.1512 H   0  0  0  0  0  0  0  0  0  0  0  0
   12.4383    4.5411   20.8031 H   0  0  0  0  0  0  0  0  0  0  0  0
  1  2  1  0  0  0  0
  2  3  1  0  0  0  0
  3  4  2  0  0  0  0
  3  5  1  0  0  0  0
  5  6  1  0  0  0  0
  5 14  2  0  0  0  0
  6  7  2  0  0  0  0
  7  8  1  0  0  0  0
  8  9  2  0  0  0  0
  9 14  1  0  0  0  0
  9 10  1  0  0  0  0
 10 12  2  0  0  0  0
 10 11  2  0  0  0  0
 12 13  1  0  0  0  0
 15  6  1  0  0  0  0
 16  7  1  0  0  0  0
 17  8  1  0  0  0  0
 18 12  1  0  0  0  0
 19 14  1  0  0  0  0
 20 11  1  0  0  0  0
 21 11  1  0  0  0  0
 22  1  1  0  0  0  0
 23  1  1  0  0  0  0
 24  1  1  0  0  0  0
 25 13  1  0  0  0  0
M  END
$$$$
