hits.sdf
 OpenBabel03112000213D

 14 14  0  0  0  0  0  0  0  0999 V2000
   11.9315   -3.4605   21.4350 C   0  0  0  0  0  0  0  0  0  0  0  0
   12.6135   -3.7679   22.6212 O   0  0  0  0  0  0  0  0  0  0  0  0
   13.4261   -2.7459   23.1357 C   0  0  0  0  0  0  0  0  0  0  0  0
   14.5686   -2.9557   23.3271 O   0  0  0  0  0  0  0  0  0  0  0  0
   12.8416   -1.3687   23.4394 C   0  0  0  0  0  0  0  0  0  0  0  0
   11.6129   -1.2504   24.0821 C   0  0  0  0  0  0  0  0  0  0  0  0
   11.0932    0.0112   24.3395 C   0  0  0  0  0  0  0  0  0  0  0  0
   11.8151    1.1345   23.9474 C   0  0  0  0  0  0  0  0  0  0  0  0
   13.0357    1.0149   23.3016 C   0  0  0  0  0  0  0  0  0  0  0  0
   13.5467   -0.2406   23.0472 C   0  0  0  0  0  0  0  0  0  0  0  0
   11.1691    2.7864   24.2627 S   0  0  0  0  0  0  0  0  0  0  0  0
   12.1912    3.7967   23.9734 O   0  0  0  0  0  0  0  0  0  0  0  0
   10.9164    2.9717   25.6933 O   0  0  0  0  0  0  0  0  0  0  0  0
    9.7659    3.0525   23.3174 N   0  0  0  0  0  0  0  0  0  0  0  0
  1  2  1  0  0  0  0
  2  3  1  0  0  0  0
  3  4  2  0  0  0  0
  3  5  1  0  0  0  0
  5  6  2  0  0  0  0
  5 10  1  0  0  0  0
  6  7  1  0  0  0  0
  7  8  2  0  0  0  0
  8  9  1  0  0  0  0
  8 11  1  0  0  0  0
 10  9  2  0  0  0  0
 11 12  2  0  0  0  0
 11 13  2  0  0  0  0
 11 14  1  0  0  0  0
M  END
$$$$
