(selection)
 OpenBabel03112014033D

 26 27  0  0  0  0  0  0  0  0999 V2000
   12.9160    1.0448   24.7914 O   0  0  0  0  0  0  0  0  0  0  0  0
   11.9861    1.4748   23.7622 S   0  0  0  0  0  0  0  0  0  0  0  0
   10.5688    1.5559   24.0434 O   0  0  0  0  0  0  0  0  0  0  0  0
   12.5498    3.0459   23.1627 C   0  0  0  0  0  0  0  0  0  0  0  0
   12.4840    3.3298   21.7960 C   0  0  0  0  0  0  0  0  0  0  0  0
   12.9934    4.5406   21.3280 C   0  0  0  0  0  0  0  0  0  0  0  0
   13.5467    5.4612   22.2192 C   0  0  0  0  0  0  0  0  0  0  0  0
   13.5602    5.1955   23.5885 C   0  0  0  0  0  0  0  0  0  0  0  0
   13.0508    3.9900   24.0688 C   0  0  0  0  0  0  0  0  0  0  0  0
   12.2380    0.4781   22.4543 N   0  0  0  0  0  0  0  0  0  0  0  0
   13.4410   -0.2621   22.3537 O   0  0  0  0  0  0  0  0  0  0  0  0
   11.1398    0.0160   21.7954 C   0  0  0  0  0  0  0  0  0  0  0  0
   10.7413   -1.3235   21.8697 C   0  0  0  0  0  0  0  0  0  0  0  0
    9.5084   -1.7089   21.3394 C   0  0  0  0  0  0  0  0  0  0  0  0
    8.6954   -0.7559   20.7335 C   0  0  0  0  0  0  0  0  0  0  0  0
    9.1275    0.5597   20.6700 C   0  0  0  0  0  0  0  0  0  0  0  0
   10.3069    0.8991   21.2113 N   0  0  0  0  0  0  0  0  0  0  0  0
   12.0441    2.6203   21.1108 H   0  0  0  0  0  0  0  0  0  0  0  0
   12.9597    4.7667   20.2725 H   0  0  0  0  0  0  0  0  0  0  0  0
   13.9665    6.3839   21.8468 H   0  0  0  0  0  0  0  0  0  0  0  0
   13.9650    5.9233   24.2762 H   0  0  0  0  0  0  0  0  0  0  0  0
   13.0424    3.7857   25.1293 H   0  0  0  0  0  0  0  0  0  0  0  0
   11.3844   -2.0558   22.3351 H   0  0  0  0  0  0  0  0  0  0  0  0
    9.1883   -2.7386   21.3990 H   0  0  0  0  0  0  0  0  0  0  0  0
    7.7393   -1.0378   20.3177 H   0  0  0  0  0  0  0  0  0  0  0  0
    8.5171    1.3082   20.1867 H   0  0  0  0  0  0  0  0  0  0  0  0
  1  2  2  0  0  0  0
  2  3  2  0  0  0  0
  2  4  1  0  0  0  0
  2 10  1  0  0  0  0
  4  5  2  0  0  0  0
  4  9  1  0  0  0  0
  5  6  1  0  0  0  0
  6  7  2  0  0  0  0
  7  8  1  0  0  0  0
  8  9  2  0  0  0  0
 10 12  1  0  0  0  0
 10 11  2  0  0  0  0
 12 13  2  0  0  0  0
 12 17  1  0  0  0  0
 13 14  1  0  0  0  0
 14 15  2  0  0  0  0
 15 16  1  0  0  0  0
 16 17  2  0  0  0  0
 18  5  1  0  0  0  0
 19  6  1  0  0  0  0
 20  7  1  0  0  0  0
 21  8  1  0  0  0  0
 22  9  1  0  0  0  0
 23 13  1  0  0  0  0
 24 14  1  0  0  0  0
 25 15  1  0  0  0  0
 26 16  1  0  0  0  0
M  END
$$$$
