(selection)
 OpenBabel03112014033D

 26 26  0  0  0  0  0  0  0  0999 V2000
   13.9688   -0.0152   22.9070 N   0  0  0  0  0  0  0  0  0  0  0  0
   12.8575    0.9302   23.5378 S   0  0  0  0  0  0  0  0  0  0  0  0
   12.3247    0.4378   24.8043 O   0  0  0  0  0  0  0  0  0  0  0  0
   13.2068    2.3481   23.5341 O   0  0  0  0  0  0  0  0  0  0  0  0
   11.4319    0.8699   22.4227 C   0  0  0  0  0  0  0  0  0  0  0  0
   11.0754   -0.3236   21.7968 C   0  0  0  0  0  0  0  0  0  0  0  0
    9.9359   -0.3616   20.9840 C   0  0  0  0  0  0  0  0  0  0  0  0
    9.1394    0.7819   20.8035 C   0  0  0  0  0  0  0  0  0  0  0  0
    7.9243    0.6820   19.9735 C   0  0  0  0  0  0  0  0  0  0  0  0
    7.5458   -0.4241   19.3082 C   0  0  0  0  0  0  0  0  0  0  0  0
    6.3471   -0.4948   18.3978 C   0  0  0  0  0  0  0  0  0  0  0  0
    5.7166    0.8580   18.0264 C   0  0  0  0  0  0  0  0  0  0  0  0
    6.3839    1.6184   17.2695 O   0  0  0  0  0  0  0  0  0  0  0  0
    4.5967    1.0822   18.5799 O   0  0  0  0  0  0  0  0  0  0  0  0
    9.5390    1.9809   21.4138 C   0  0  0  0  0  0  0  0  0  0  0  0
   10.6750    2.0257   22.2306 C   0  0  0  0  0  0  0  0  0  0  0  0
   11.6734   -1.2119   21.9377 H   0  0  0  0  0  0  0  0  0  0  0  0
    9.6654   -1.2825   20.4889 H   0  0  0  0  0  0  0  0  0  0  0  0
    7.2956    1.5566   19.8945 H   0  0  0  0  0  0  0  0  0  0  0  0
    8.1385   -1.3181   19.4345 H   0  0  0  0  0  0  0  0  0  0  0  0
    6.6551   -0.9862   17.4749 H   0  0  0  0  0  0  0  0  0  0  0  0
    5.5857   -1.1095   18.8779 H   0  0  0  0  0  0  0  0  0  0  0  0
    8.9631    2.8799   21.2513 H   0  0  0  0  0  0  0  0  0  0  0  0
   10.9637    2.9498   22.7092 H   0  0  0  0  0  0  0  0  0  0  0  0
   14.8599    0.1745   23.3430 H   0  0  0  0  0  0  0  0  0  0  0  0
   13.7169   -0.9808   23.0626 H   0  0  0  0  0  0  0  0  0  0  0  0
  1  2  1  0  0  0  0
  2  3  2  0  0  0  0
  2  4  2  0  0  0  0
  2  5  1  0  0  0  0
  5  6  2  0  0  0  0
  5 16  1  0  0  0  0
  6  7  1  0  0  0  0
  7  8  2  0  0  0  0
  8  9  1  0  0  0  0
  8 15  1  0  0  0  0
  9 10  2  0  0  0  0
 10 11  1  0  0  0  0
 11 12  1  0  0  0  0
 12 13  2  0  0  0  0
 12 14  2  0  0  0  0
 15 16  2  0  0  0  0
 17  6  1  0  0  0  0
 18  7  1  0  0  0  0
 19  9  1  0  0  0  0
 20 10  1  0  0  0  0
 21 11  1  0  0  0  0
 22 11  1  0  0  0  0
 23 15  1  0  0  0  0
 24 16  1  0  0  0  0
 25  1  1  0  0  0  0
 26  1  1  0  0  0  0
M  END
$$$$
