(selection)
 OpenBabel03112014033D

 31 31  0  0  1  0  0  0  0  0999 V2000
   12.4195    0.2727   22.4946 C   0  0  0  0  0  0  0  0  0  0  0  0
   11.5425    1.4915   22.2044 C   0  0  1  0  0  0  0  0  0  0  0  0
   10.3535    1.6194   23.1835 C   0  0  0  0  0  0  0  0  0  0  0  0
    9.3251    0.4900   23.0376 C   0  0  0  0  0  0  0  0  0  0  0  0
    8.5379    0.5145   21.7462 C   0  0  0  0  0  0  0  0  0  0  0  0
    8.9907   -0.2079   20.6302 C   0  0  0  0  0  0  0  0  0  0  0  0
    8.2272   -0.2637   19.4614 C   0  0  0  0  0  0  0  0  0  0  0  0
    7.0059    0.4093   19.4036 C   0  0  0  0  0  0  0  0  0  0  0  0
    6.0158    0.2848   17.8878 S   0  0  0  0  0  0  0  0  0  0  0  0
    4.5078    0.5324   18.3217 N   0  0  0  0  0  0  0  0  0  0  0  0
    6.5573    1.3375   17.0373 O   0  0  0  0  0  0  0  0  0  0  0  0
    6.3028   -1.0774   17.4407 O   0  0  0  0  0  0  0  0  0  0  0  0
    6.5512    1.1556   20.4911 C   0  0  0  0  0  0  0  0  0  0  0  0
    7.3202    1.2080   21.6600 C   0  0  0  0  0  0  0  0  0  0  0  0
   12.3372    2.8156   22.1501 C   0  0  0  0  0  0  0  0  0  0  0  0
   12.8663    3.1934   23.2344 O   0  0  0  0  0  0  0  0  0  0  0  0
   12.3922    3.3603   21.0123 O   0  0  0  0  0  0  0  0  0  0  0  0
   11.1163    1.3414   21.2125 H   0  0  0  0  0  0  0  0  0  0  0  0
   10.7409    1.6053   24.2022 H   0  0  0  0  0  0  0  0  0  0  0  0
    9.8556    2.5733   23.0096 H   0  0  0  0  0  0  0  0  0  0  0  0
    8.6205    0.5636   23.8660 H   0  0  0  0  0  0  0  0  0  0  0  0
    9.8458   -0.4649   23.1086 H   0  0  0  0  0  0  0  0  0  0  0  0
    9.9377   -0.7250   20.6759 H   0  0  0  0  0  0  0  0  0  0  0  0
    8.5799   -0.8240   18.6081 H   0  0  0  0  0  0  0  0  0  0  0  0
    5.6137    1.6885   20.4318 H   0  0  0  0  0  0  0  0  0  0  0  0
    6.9735    1.7872   22.5030 H   0  0  0  0  0  0  0  0  0  0  0  0
   13.2381    0.2341   21.7760 H   0  0  0  0  0  0  0  0  0  0  0  0
   12.8252    0.3493   23.5034 H   0  0  0  0  0  0  0  0  0  0  0  0
   11.8203   -0.6341   22.4118 H   0  0  0  0  0  0  0  0  0  0  0  0
    3.8939    0.3044   17.5527 H   0  0  0  0  0  0  0  0  0  0  0  0
    4.3852    1.5027   18.5737 H   0  0  0  0  0  0  0  0  0  0  0  0
  2 15  1  0  0  0  0
  2 18  1  6  0  0  0
  2  1  1  0  0  0  0
  2  3  1  0  0  0  0
  3  4  1  0  0  0  0
  4  5  1  0  0  0  0
  5  6  2  0  0  0  0
  5 14  1  0  0  0  0
  6  7  1  0  0  0  0
  7  8  2  0  0  0  0
  8  9  1  0  0  0  0
  8 13  1  0  0  0  0
  9 10  1  0  0  0  0
  9 11  2  0  0  0  0
  9 12  2  0  0  0  0
 13 14  2  0  0  0  0
 15 16  2  0  0  0  0
 15 17  2  0  0  0  0
 19  3  1  0  0  0  0
 20  3  1  0  0  0  0
 21  4  1  0  0  0  0
 22  4  1  0  0  0  0
 23  6  1  0  0  0  0
 24  7  1  0  0  0  0
 25 13  1  0  0  0  0
 26 14  1  0  0  0  0
 27  1  1  0  0  0  0
 28  1  1  0  0  0  0
 29  1  1  0  0  0  0
 30 10  1  0  0  0  0
 31 10  1  0  0  0  0
M  END
$$$$
