(selection)
 OpenBabel03112014033D

 28 28  0  0  0  0  0  0  0  0999 V2000
    7.7542    0.4723   20.2518 C   0  0  0  0  0  0  0  0  0  0  0  0
    9.0402    0.6533   20.8393 O   0  0  0  0  0  0  0  0  0  0  0  0
    9.7414   -0.4942   21.0175 C   0  0  0  0  0  0  0  0  0  0  0  0
    9.3541   -1.6181   20.7327 O   0  0  0  0  0  0  0  0  0  0  0  0
   11.0625   -0.2061   21.6404 C   0  0  0  0  0  0  0  0  0  0  0  0
   12.0012   -1.2426   21.7080 C   0  0  0  0  0  0  0  0  0  0  0  0
   13.2316   -1.0331   22.3323 C   0  0  0  0  0  0  0  0  0  0  0  0
   13.5235    0.2110   22.8961 C   0  0  0  0  0  0  0  0  0  0  0  0
   12.6051    1.2659   22.8268 C   0  0  0  0  0  0  0  0  0  0  0  0
   12.9055    2.5991   23.4801 C   0  0  0  0  0  0  0  0  0  0  0  0
   12.5200    3.7935   22.6135 C   0  0  0  0  0  0  0  0  0  0  0  0
   13.0105    5.1022   23.1908 C   0  0  0  0  0  0  0  0  0  0  0  0
   14.0283    5.6837   22.8163 O   0  0  0  0  0  0  0  0  0  0  0  0
   12.1695    5.7364   24.3072 C   0  0  0  0  0  0  0  0  0  0  0  0
   11.1032    5.1044   24.6019 O   0  0  0  0  0  0  0  0  0  0  0  0
   12.5833    6.8122   24.8379 O   0  0  0  0  0  0  0  0  0  0  0  0
   11.3727    1.0478   22.1896 C   0  0  0  0  0  0  0  0  0  0  0  0
   11.7728   -2.2059   21.2763 H   0  0  0  0  0  0  0  0  0  0  0  0
   13.9570   -1.8318   22.3794 H   0  0  0  0  0  0  0  0  0  0  0  0
   14.4708    0.3615   23.3925 H   0  0  0  0  0  0  0  0  0  0  0  0
   12.3518    2.6581   24.4171 H   0  0  0  0  0  0  0  0  0  0  0  0
   13.9722    2.6519   23.6977 H   0  0  0  0  0  0  0  0  0  0  0  0
   11.4337    3.8315   22.5321 H   0  0  0  0  0  0  0  0  0  0  0  0
   12.9461    3.6625   21.6188 H   0  0  0  0  0  0  0  0  0  0  0  0
   10.6563    1.8531   22.1215 H   0  0  0  0  0  0  0  0  0  0  0  0
    7.2655    1.4402   20.1405 H   0  0  0  0  0  0  0  0  0  0  0  0
    7.8647    0.0066   19.2725 H   0  0  0  0  0  0  0  0  0  0  0  0
    7.1489   -0.1687   20.8927 H   0  0  0  0  0  0  0  0  0  0  0  0
  1  2  1  0  0  0  0
  2  3  1  0  0  0  0
  3  4  2  0  0  0  0
  3  5  1  0  0  0  0
  5 17  2  0  0  0  0
  5  6  1  0  0  0  0
  6  7  2  0  0  0  0
  7  8  1  0  0  0  0
  8  9  2  0  0  0  0
  9 10  1  0  0  0  0
  9 17  1  0  0  0  0
 10 11  1  0  0  0  0
 11 12  1  0  0  0  0
 12 13  2  0  0  0  0
 12 14  2  0  0  0  0
 14 15  2  0  0  0  0
 14 16  2  0  0  0  0
 18  6  1  0  0  0  0
 19  7  1  0  0  0  0
 20  8  1  0  0  0  0
 21 10  1  0  0  0  0
 22 10  1  0  0  0  0
 23 11  1  0  0  0  0
 24 11  1  0  0  0  0
 25 17  1  0  0  0  0
 26  1  1  0  0  0  0
 27  1  1  0  0  0  0
 28  1  1  0  0  0  0
M  END
$$$$
