(selection)
 OpenBabel03112014033D

 36 36  0  0  1  0  0  0  0  0999 V2000
   12.5486    3.3410   23.6138 C   0  0  0  0  0  0  0  0  0  0  0  0
   12.3950    2.0766   22.7838 C   0  0  0  0  0  0  0  0  0  0  0  0
   13.2092    0.8823   23.3226 C   0  0  1  0  0  0  0  0  0  0  0  0
   12.7132    0.4335   24.6296 N   0  3  0  0  0  0  0  0  0  0  0  0
   13.1896   -0.2489   22.2736 C   0  0  1  0  0  0  0  0  0  0  0  0
   14.1754   -1.1215   22.6392 F   0  0  0  0  0  0  0  0  0  0  0  0
   11.8610   -1.0053   22.2136 C   0  0  0  0  0  0  0  0  0  0  0  0
   10.7653   -0.2263   21.4798 C   0  0  0  0  0  0  0  0  0  0  0  0
    9.4578   -1.0103   21.3486 C   0  0  0  0  0  0  0  0  0  0  0  0
    8.4409   -0.2760   20.5204 C   0  0  0  0  0  0  0  0  0  0  0  0
    8.4856   -0.3716   19.1225 C   0  0  0  0  0  0  0  0  0  0  0  0
    7.5571    0.3087   18.3431 C   0  0  0  0  0  0  0  0  0  0  0  0
    6.5781    1.0909   18.9542 C   0  0  0  0  0  0  0  0  0  0  0  0
    6.5261    1.1888   20.3448 C   0  0  0  0  0  0  0  0  0  0  0  0
    7.4555    0.5059   21.1280 C   0  0  0  0  0  0  0  0  0  0  0  0
   11.3413    1.7980   22.7720 H   0  0  0  0  0  0  0  0  0  0  0  0
   12.7138    2.2864   21.7628 H   0  0  0  0  0  0  0  0  0  0  0  0
   14.2419    1.2077   23.4478 H   0  0  0  0  0  0  0  0  0  0  0  0
   13.4167    0.1639   21.2907 H   0  0  0  0  0  0  0  0  0  0  0  0
   11.5259   -1.2011   23.2322 H   0  0  0  0  0  0  0  0  0  0  0  0
   12.0189   -1.9563   21.7050 H   0  0  0  0  0  0  0  0  0  0  0  0
   10.5650    0.6928   22.0305 H   0  0  0  0  0  0  0  0  0  0  0  0
   11.1233    0.0311   20.4830 H   0  0  0  0  0  0  0  0  0  0  0  0
    9.0464   -1.1771   22.3441 H   0  0  0  0  0  0  0  0  0  0  0  0
    9.6661   -1.9740   20.8838 H   0  0  0  0  0  0  0  0  0  0  0  0
    9.2448   -0.9765   18.6490 H   0  0  0  0  0  0  0  0  0  0  0  0
    7.5940    0.2315   17.2665 H   0  0  0  0  0  0  0  0  0  0  0  0
    5.8582    1.6224   18.3495 H   0  0  0  0  0  0  0  0  0  0  0  0
    5.7652    1.7941   20.8150 H   0  0  0  0  0  0  0  0  0  0  0  0
    7.4137    0.5814   22.2045 H   0  0  0  0  0  0  0  0  0  0  0  0
   11.9484    4.1387   23.1761 H   0  0  0  0  0  0  0  0  0  0  0  0
   12.2111    3.1498   24.6325 H   0  0  0  0  0  0  0  0  0  0  0  0
   13.5964    3.6410   23.6284 H   0  0  0  0  0  0  0  0  0  0  0  0
   13.0930    1.0244   25.3554 H   0  0  0  0  0  0  0  0  0  0  0  0
   13.0006   -0.5216   24.7886 H   0  0  0  0  0  0  0  0  0  0  0  0
   11.7048    0.4885   24.6440 H   0  0  0  0  0  0  0  0  0  0  0  0
  1  2  1  0  0  0  0
  2  3  1  0  0  0  0
  3 18  1  1  0  0  0
  3  5  1  0  0  0  0
  3  4  1  0  0  0  0
  5  6  1  0  0  0  0
  5 19  1  6  0  0  0
  5  7  1  0  0  0  0
  7  8  1  0  0  0  0
  8  9  1  0  0  0  0
  9 10  1  0  0  0  0
 10 15  2  0  0  0  0
 10 11  1  0  0  0  0
 11 12  2  0  0  0  0
 12 13  1  0  0  0  0
 13 14  2  0  0  0  0
 14 15  1  0  0  0  0
 16  2  1  0  0  0  0
 17  2  1  0  0  0  0
 20  7  1  0  0  0  0
 21  7  1  0  0  0  0
 22  8  1  0  0  0  0
 23  8  1  0  0  0  0
 24  9  1  0  0  0  0
 25  9  1  0  0  0  0
 26 11  1  0  0  0  0
 27 12  1  0  0  0  0
 28 13  1  0  0  0  0
 29 14  1  0  0  0  0
 30 15  1  0  0  0  0
 31  1  1  0  0  0  0
 32  1  1  0  0  0  0
 33  1  1  0  0  0  0
 34  4  1  0  0  0  0
 35  4  1  0  0  0  0
 36  4  1  0  0  0  0
M  CHG  1   4   1
M  END
$$$$
