(selection)
 OpenBabel03112014033D

 33 33  0  0  1  0  0  0  0  0999 V2000
   13.2623   -1.5781   21.8651 C   0  0  0  0  0  0  0  0  0  0  0  0
   12.1573   -0.5245   21.7179 C   0  0  2  0  0  0  0  0  0  0  0  0
   12.5466    0.7151   22.3694 O   0  0  0  0  0  0  0  0  0  0  0  0
   11.7737    1.8423   21.9512 C   0  0  0  0  0  0  0  0  0  0  0  0
   12.3710    3.1622   22.3905 C   0  0  0  0  0  0  0  0  0  0  0  0
   12.8793    4.1047   21.4905 C   0  0  0  0  0  0  0  0  0  0  0  0
   13.4065    5.3134   21.9542 C   0  0  0  0  0  0  0  0  0  0  0  0
   13.4340    5.5933   23.3197 C   0  0  0  0  0  0  0  0  0  0  0  0
   12.9228    4.6692   24.2258 C   0  0  0  0  0  0  0  0  0  0  0  0
   12.3960    3.4614   23.7634 C   0  0  0  0  0  0  0  0  0  0  0  0
   10.8327   -1.0126   22.3697 C   0  0  1  0  0  0  0  0  0  0  0  0
   10.8717   -0.8395   23.8554 N   0  3  0  0  0  0  0  0  0  0  0  0
    9.6302   -0.2227   21.7987 C   0  0  0  0  0  0  0  0  0  0  0  0
    8.9600    0.5109   22.5285 O   0  0  0  0  0  0  0  0  0  0  0  0
    9.4603   -0.4656   20.4377 N   0  0  0  0  0  0  0  0  0  0  0  0
    8.3945    0.1214   19.7790 O   0  0  0  0  0  0  0  0  0  0  0  0
   11.9850   -0.3328   20.6588 H   0  0  0  0  0  0  0  0  0  0  0  0
   11.7090    1.8350   20.8631 H   0  0  0  0  0  0  0  0  0  0  0  0
   10.7691    1.7544   22.3650 H   0  0  0  0  0  0  0  0  0  0  0  0
   12.8643    3.8972   20.4307 H   0  0  0  0  0  0  0  0  0  0  0  0
   13.7948    6.0348   21.2505 H   0  0  0  0  0  0  0  0  0  0  0  0
   13.8509    6.5247   23.6733 H   0  0  0  0  0  0  0  0  0  0  0  0
   12.9334    4.8855   25.2839 H   0  0  0  0  0  0  0  0  0  0  0  0
   12.0021    2.7469   24.4711 H   0  0  0  0  0  0  0  0  0  0  0  0
   10.6982   -2.0702   22.1426 H   0  0  0  0  0  0  0  0  0  0  0  0
   10.1056   -1.0614   19.9390 H   0  0  0  0  0  0  0  0  0  0  0  0
    8.4082   -0.1361   18.8543 H   0  0  0  0  0  0  0  0  0  0  0  0
   14.1781   -1.2121   21.4010 H   0  0  0  0  0  0  0  0  0  0  0  0
   12.9512   -2.5012   21.3761 H   0  0  0  0  0  0  0  0  0  0  0  0
   13.4426   -1.7702   22.9228 H   0  0  0  0  0  0  0  0  0  0  0  0
   10.0024   -1.1627   24.2554 H   0  0  0  0  0  0  0  0  0  0  0  0
   11.0013    0.1373   24.0770 H   0  0  0  0  0  0  0  0  0  0  0  0
   11.6378   -1.3758   24.2368 H   0  0  0  0  0  0  0  0  0  0  0  0
  2 17  1  6  0  0  0
  2  3  1  0  0  0  0
  2 11  1  0  0  0  0
  2  1  1  0  0  0  0
  3  4  1  0  0  0  0
  4  5  1  0  0  0  0
  5 10  2  0  0  0  0
  5  6  1  0  0  0  0
  6  7  2  0  0  0  0
  7  8  1  0  0  0  0
  8  9  2  0  0  0  0
  9 10  1  0  0  0  0
 11 25  1  6  0  0  0
 11 12  1  0  0  0  0
 11 13  1  0  0  0  0
 13 14  2  0  0  0  0
 13 15  1  0  0  0  0
 15 16  1  0  0  0  0
 18  4  1  0  0  0  0
 19  4  1  0  0  0  0
 20  6  1  0  0  0  0
 21  7  1  0  0  0  0
 22  8  1  0  0  0  0
 23  9  1  0  0  0  0
 24 10  1  0  0  0  0
 26 15  1  0  0  0  0
 27 16  1  0  0  0  0
 28  1  1  0  0  0  0
 29  1  1  0  0  0  0
 30  1  1  0  0  0  0
 31 12  1  0  0  0  0
 32 12  1  0  0  0  0
 33 12  1  0  0  0  0
M  CHG  1  12   1
M  END
$$$$
