(selection)
 OpenBabel03112014033D

 26 26  0  0  1  0  0  0  0  0999 V2000
   13.5586    4.1693   22.4995 C   0  0  0  0  0  0  0  0  0  0  0  0
   12.2499    3.7553   23.1794 C   0  0  1  0  0  0  0  0  0  0  0  0
   12.4318    2.4696   24.0153 C   0  0  0  0  0  0  0  0  0  0  0  0
   12.5336    1.1942   23.2022 C   0  0  0  0  0  0  0  0  0  0  0  0
   13.7315    0.4646   23.1728 C   0  0  0  0  0  0  0  0  0  0  0  0
   13.8371   -0.6974   22.4089 C   0  0  0  0  0  0  0  0  0  0  0  0
   12.7462   -1.1476   21.6690 C   0  0  0  0  0  0  0  0  0  0  0  0
   11.5450   -0.4415   21.7023 C   0  0  0  0  0  0  0  0  0  0  0  0
   11.4364    0.7190   22.4715 C   0  0  0  0  0  0  0  0  0  0  0  0
   11.7195    4.8870   24.0737 C   0  0  0  0  0  0  0  0  0  0  0  0
   10.7014    5.5106   23.7747 O   0  0  0  0  0  0  0  0  0  0  0  0
   12.5480    5.1040   25.1720 N   0  0  0  0  0  0  0  0  0  0  0  0
   12.1732    6.0062   26.1479 O   0  0  0  0  0  0  0  0  0  0  0  0
   11.5098    3.5570   22.4041 H   0  0  0  0  0  0  0  0  0  0  0  0
   11.5776    2.3772   24.6860 H   0  0  0  0  0  0  0  0  0  0  0  0
   13.3355    2.5712   24.6162 H   0  0  0  0  0  0  0  0  0  0  0  0
   14.5800    0.8060   23.7472 H   0  0  0  0  0  0  0  0  0  0  0  0
   14.7656   -1.2487   22.3910 H   0  0  0  0  0  0  0  0  0  0  0  0
   12.8310   -2.0425   21.0704 H   0  0  0  0  0  0  0  0  0  0  0  0
   10.6972   -0.7923   21.1326 H   0  0  0  0  0  0  0  0  0  0  0  0
   10.4991    1.2546   22.5035 H   0  0  0  0  0  0  0  0  0  0  0  0
   13.4209    4.6027   25.2545 H   0  0  0  0  0  0  0  0  0  0  0  0
   13.3957    5.0776   21.9193 H   0  0  0  0  0  0  0  0  0  0  0  0
   14.3191    4.3545   23.2581 H   0  0  0  0  0  0  0  0  0  0  0  0
   13.8927    3.3704   21.8376 H   0  0  0  0  0  0  0  0  0  0  0  0
   12.8478    6.0389   26.8302 H   0  0  0  0  0  0  0  0  0  0  0  0
  2  3  1  0  0  0  0
  2 10  1  0  0  0  0
  2 14  1  6  0  0  0
  2  1  1  0  0  0  0
  3  4  1  0  0  0  0
  4  5  2  0  0  0  0
  4  9  1  0  0  0  0
  5  6  1  0  0  0  0
  6  7  2  0  0  0  0
  7  8  1  0  0  0  0
  8  9  2  0  0  0  0
 10 12  1  0  0  0  0
 10 11  2  0  0  0  0
 12 13  1  0  0  0  0
 15  3  1  0  0  0  0
 16  3  1  0  0  0  0
 17  5  1  0  0  0  0
 18  6  1  0  0  0  0
 19  7  1  0  0  0  0
 20  8  1  0  0  0  0
 21  9  1  0  0  0  0
 22 12  1  0  0  0  0
 23  1  1  0  0  0  0
 24  1  1  0  0  0  0
 25  1  1  0  0  0  0
 26 13  1  0  0  0  0
M  END
$$$$
