
 OpenBabel03142011073D

 29 30  0  0  0  0  0  0  0  0999 V2000
    9.5220    5.3850   22.9640 C   0  0  0  0  0  0  0  0  0  0  0  0
   10.6910    5.7360   23.8810 C   0  0  0  0  0  0  0  0  0  0  0  0
   10.4660    6.3160   24.8740 O   0  0  0  0  0  0  0  0  0  0  0  0
   12.0740    5.3880   23.6220 N   0  0  0  0  0  0  0  0  0  0  0  0
   12.4920    4.6500   22.4510 C   0  0  0  0  0  0  0  0  0  0  0  0
   13.1760    3.3750   22.9180 C   0  0  0  0  0  0  0  0  0  0  0  0
   12.2100    2.3170   23.4570 C   0  0  0  0  0  0  0  0  0  0  0  0
   11.1390    2.4870   24.3210 C   0  0  0  0  0  0  0  0  0  0  0  0
   10.5720    1.3010   24.5250 N   0  0  0  0  0  0  0  0  0  0  0  0
   11.2360    0.3380   23.8210 C   0  0  0  0  0  0  0  0  0  0  0  0
   11.0300   -1.0620   23.6930 C   0  0  0  0  0  0  0  0  0  0  0  0
   11.8800   -1.8120   22.8830 C   0  0  0  0  0  0  0  0  0  0  0  0
   12.9290   -1.1860   22.1980 C   0  0  0  0  0  0  0  0  0  0  0  0
   13.1280    0.1820   22.3230 C   0  0  0  0  0  0  0  0  0  0  0  0
   12.2670    0.9460   23.1470 C   0  0  0  0  0  0  0  0  0  0  0  0
   13.7690   -1.8980   21.4040 F   0  0  0  0  0  0  0  0  0  0  0  0
    8.6125    5.7574   23.3871 H   0  0  0  0  0  0  0  0  0  0  0  0
    9.4576    4.3221   22.8592 H   0  0  0  0  0  0  0  0  0  0  0  0
    9.6766    5.8295   22.0030 H   0  0  0  0  0  0  0  0  0  0  0  0
   12.7590    5.6664   24.2721 H   0  0  0  0  0  0  0  0  0  0  0  0
   13.1755    5.2388   21.8756 H   0  0  0  0  0  0  0  0  0  0  0  0
   11.6467    4.4152   21.8385 H   0  0  0  0  0  0  0  0  0  0  0  0
   13.8668    3.6280   23.6949 H   0  0  0  0  0  0  0  0  0  0  0  0
   13.6586    2.9494   22.0631 H   0  0  0  0  0  0  0  0  0  0  0  0
   10.8336    3.3815   24.7354 H   0  0  0  0  0  0  0  0  0  0  0  0
    9.7885    1.1412   25.0994 H   0  0  0  0  0  0  0  0  0  0  0  0
   10.2551   -1.5207   24.1972 H   0  0  0  0  0  0  0  0  0  0  0  0
   11.7365   -2.8295   22.7877 H   0  0  0  0  0  0  0  0  0  0  0  0
   13.9014    0.6408   21.8167 H   0  0  0  0  0  0  0  0  0  0  0  0
  1  2  1  0  0  0  0
  1 17  1  0  0  0  0
  1 18  1  0  0  0  0
  1 19  1  0  0  0  0
  2  3  2  0  0  0  0
  2  4  1  0  0  0  0
  4  5  1  0  0  0  0
  4 20  1  0  0  0  0
  5  6  1  0  0  0  0
  5 21  1  0  0  0  0
  5 22  1  0  0  0  0
  6  7  1  0  0  0  0
  6 23  1  0  0  0  0
  6 24  1  0  0  0  0
  7  8  2  0  0  0  0
  7 15  1  0  0  0  0
  8  9  1  0  0  0  0
  8 25  1  0  0  0  0
  9 10  1  0  0  0  0
  9 26  1  0  0  0  0
 10 11  1  0  0  0  0
 11 12  2  0  0  0  0
 11 27  1  0  0  0  0
 12 13  1  0  0  0  0
 12 28  1  0  0  0  0
 13 14  2  0  0  0  0
 13 16  1  0  0  0  0
 14 29  1  0  0  0  0
 15 10  2  0  0  0  0
 15 14  1  0  0  0  0
M  END
$$$$
