(selection)
 OpenBabel03112014033D

 27 27  0  0  0  0  0  0  0  0999 V2000
   12.8851    4.2808   23.9054 C   0  0  0  0  0  0  0  0  0  0  0  0
   11.6877    3.6996   23.3881 O   0  0  0  0  0  0  0  0  0  0  0  0
   11.8633    2.4535   22.8798 C   0  0  0  0  0  0  0  0  0  0  0  0
   12.8895    1.7938   22.9691 O   0  0  0  0  0  0  0  0  0  0  0  0
   10.6359    1.9760   22.1865 C   0  0  0  0  0  0  0  0  0  0  0  0
   10.6920    0.7373   21.5353 C   0  0  0  0  0  0  0  0  0  0  0  0
    9.5725    0.2407   20.8650 C   0  0  0  0  0  0  0  0  0  0  0  0
    8.3785    0.9723   20.8307 C   0  0  0  0  0  0  0  0  0  0  0  0
    7.1857    0.4361   20.0680 C   0  0  0  0  0  0  0  0  0  0  0  0
    6.9942    1.1833   18.8811 O   0  0  0  0  0  0  0  0  0  0  0  0
    5.8354    0.6467   17.8612 S   0  0  0  0  0  0  0  0  0  0  0  0
    4.5433    0.8944   18.7329 N   0  0  0  0  0  0  0  0  0  0  0  0
    5.9497    1.5159   16.6955 O   0  0  0  0  0  0  0  0  0  0  0  0
    6.1687   -0.7530   17.6333 O   0  0  0  0  0  0  0  0  0  0  0  0
    8.3246    2.2132   21.4817 C   0  0  0  0  0  0  0  0  0  0  0  0
    9.4442    2.7131   22.1586 C   0  0  0  0  0  0  0  0  0  0  0  0
   11.6065    0.1630   21.5518 H   0  0  0  0  0  0  0  0  0  0  0  0
    9.6276   -0.7167   20.3682 H   0  0  0  0  0  0  0  0  0  0  0  0
    6.2946    0.5136   20.6909 H   0  0  0  0  0  0  0  0  0  0  0  0
    7.3593   -0.6094   19.8133 H   0  0  0  0  0  0  0  0  0  0  0  0
    7.4111    2.7889   21.4609 H   0  0  0  0  0  0  0  0  0  0  0  0
    9.3891    3.6681   22.6599 H   0  0  0  0  0  0  0  0  0  0  0  0
    3.7476    1.0292   18.1256 H   0  0  0  0  0  0  0  0  0  0  0  0
    4.3806    0.0951   19.3285 H   0  0  0  0  0  0  0  0  0  0  0  0
   12.6812    5.2985   24.2382 H   0  0  0  0  0  0  0  0  0  0  0  0
   13.2420    3.6880   24.7476 H   0  0  0  0  0  0  0  0  0  0  0  0
   13.6464    4.2992   23.1255 H   0  0  0  0  0  0  0  0  0  0  0  0
  1  2  1  0  0  0  0
  2  3  1  0  0  0  0
  3  4  2  0  0  0  0
  3  5  1  0  0  0  0
  5 16  2  0  0  0  0
  5  6  1  0  0  0  0
  6  7  2  0  0  0  0
  7  8  1  0  0  0  0
  8  9  1  0  0  0  0
  8 15  2  0  0  0  0
  9 10  1  0  0  0  0
 10 11  1  0  0  0  0
 11 12  1  0  0  0  0
 11 13  2  0  0  0  0
 11 14  2  0  0  0  0
 15 16  1  0  0  0  0
 17  6  1  0  0  0  0
 18  7  1  0  0  0  0
 19  9  1  0  0  0  0
 20  9  1  0  0  0  0
 21 15  1  0  0  0  0
 22 16  1  0  0  0  0
 23 12  1  0  0  0  0
 24 12  1  0  0  0  0
 25  1  1  0  0  0  0
 26  1  1  0  0  0  0
 27  1  1  0  0  0  0
M  END
$$$$
