(selection)
 OpenBabel03112014033D

 32 32  0  0  1  0  0  0  0  0999 V2000
   11.6191    2.4782   22.0499 C   0  0  0  0  0  0  0  0  0  0  0  0
   11.4467    1.0166   22.0947 N   0  3  1  0  0  0  0  0  0  0  0  0
   12.4365    0.3842   23.0002 C   0  0  0  0  0  0  0  0  0  0  0  0
   13.1388   -0.7804   22.3211 C   0  0  0  0  0  0  0  0  0  0  0  0
   13.7214   -1.7464   21.7579 N   0  0  0  0  0  0  0  0  0  0  0  0
   10.0652    0.6576   22.4717 C   0  0  0  0  0  0  0  0  0  0  0  0
    9.1133    0.6382   21.2877 C   0  0  0  0  0  0  0  0  0  0  0  0
    7.9778    1.4676   21.2711 C   0  0  0  0  0  0  0  0  0  0  0  0
    7.0266    1.3544   20.2540 C   0  0  0  0  0  0  0  0  0  0  0  0
    7.2118    0.4091   19.2464 C   0  0  0  0  0  0  0  0  0  0  0  0
    5.9344    0.1419   17.9879 S   0  0  0  0  0  0  0  0  0  0  0  0
    4.5435    0.3958   18.7114 N   0  0  0  0  0  0  0  0  0  0  0  0
    6.2786    1.1498   16.9909 O   0  0  0  0  0  0  0  0  0  0  0  0
    6.1553   -1.2396   17.5737 O   0  0  0  0  0  0  0  0  0  0  0  0
    8.3492   -0.3996   19.2235 C   0  0  0  0  0  0  0  0  0  0  0  0
    9.3025   -0.2769   20.2364 C   0  0  0  0  0  0  0  0  0  0  0  0
   11.6122    0.6605   21.1642 H   0  0  0  0  0  0  0  0  0  0  0  0
   11.9223    0.0193   23.8893 H   0  0  0  0  0  0  0  0  0  0  0  0
   13.1779    1.1269   23.2949 H   0  0  0  0  0  0  0  0  0  0  0  0
    9.7026    1.3861   23.1969 H   0  0  0  0  0  0  0  0  0  0  0  0
   10.0712   -0.3288   22.9355 H   0  0  0  0  0  0  0  0  0  0  0  0
    7.8395    2.1998   22.0528 H   0  0  0  0  0  0  0  0  0  0  0  0
    6.1559    1.9934   20.2485 H   0  0  0  0  0  0  0  0  0  0  0  0
    8.4910   -1.1156   18.4275 H   0  0  0  0  0  0  0  0  0  0  0  0
   10.1918   -0.8893   20.2124 H   0  0  0  0  0  0  0  0  0  0  0  0
   14.4963   -2.2050   22.2155 H   0  0  0  0  0  0  0  0  0  0  0  0
   13.4132   -2.0616   20.8492 H   0  0  0  0  0  0  0  0  0  0  0  0
    3.7933    0.0491   18.1308 H   0  0  0  0  0  0  0  0  0  0  0  0
    4.4199    1.3863   18.8653 H   0  0  0  0  0  0  0  0  0  0  0  0
   12.6455    2.7151   21.7698 H   0  0  0  0  0  0  0  0  0  0  0  0
   10.9350    2.9021   21.3147 H   0  0  0  0  0  0  0  0  0  0  0  0
   11.4040    2.8997   23.0318 H   0  0  0  0  0  0  0  0  0  0  0  0
  1  2  1  0  0  0  0
  2 17  1  6  0  0  0
  2  3  1  0  0  0  0
  2  6  1  0  0  0  0
  3  4  1  0  0  0  0
  4  5  2  0  0  0  0
  6  7  1  0  0  0  0
  7  8  2  0  0  0  0
  7 16  1  0  0  0  0
  8  9  1  0  0  0  0
  9 10  2  0  0  0  0
 10 11  1  0  0  0  0
 10 15  1  0  0  0  0
 11 12  1  0  0  0  0
 11 13  2  0  0  0  0
 11 14  2  0  0  0  0
 15 16  2  0  0  0  0
 18  3  1  0  0  0  0
 19  3  1  0  0  0  0
 20  6  1  0  0  0  0
 21  6  1  0  0  0  0
 22  8  1  0  0  0  0
 23  9  1  0  0  0  0
 24 15  1  0  0  0  0
 25 16  1  0  0  0  0
 26  5  1  0  0  0  0
 27  5  1  0  0  0  0
 28 12  1  0  0  0  0
 29 12  1  0  0  0  0
 30  1  1  0  0  0  0
 31  1  1  0  0  0  0
 32  1  1  0  0  0  0
M  CHG  1   2   1
M  END
$$$$
