(selection)
 OpenBabel03112014033D

 25 25  0  0  0  0  0  0  0  0999 V2000
   13.9306   -0.3173   22.4043 N   0  0  0  0  0  0  0  0  0  0  0  0
   12.8416    0.6924   23.1949 S   0  0  0  0  0  0  0  0  0  0  0  0
   12.7991    0.2564   24.5693 O   0  0  0  0  0  0  0  0  0  0  0  0
   13.2493    2.0314   22.8175 O   0  0  0  0  0  0  0  0  0  0  0  0
   11.3174    0.2920   22.4073 C   0  0  0  0  0  0  0  0  0  0  0  0
   10.9562   -1.0495   22.2457 C   0  0  0  0  0  0  0  0  0  0  0  0
    9.7687   -1.3614   21.5812 C   0  0  0  0  0  0  0  0  0  0  0  0
    8.9327   -0.3485   21.0832 C   0  0  0  0  0  0  0  0  0  0  0  0
    7.6589   -0.7095   20.3350 C   0  0  0  0  0  0  0  0  0  0  0  0
    7.5511   -0.1599   18.9150 C   0  0  0  0  0  0  0  0  0  0  0  0
    7.5460    1.2077   18.9538 F   0  0  0  0  0  0  0  0  0  0  0  0
    8.6479   -0.5251   18.1838 F   0  0  0  0  0  0  0  0  0  0  0  0
    6.2682   -0.6479   18.1583 C   0  0  0  0  0  0  0  0  0  0  0  0
    6.3964   -1.7113   17.4703 O   0  0  0  0  0  0  0  0  0  0  0  0
    5.2231    0.0580   18.2915 O   0  0  0  0  0  0  0  0  0  0  0  0
    9.3208    0.9903   21.2482 C   0  0  0  0  0  0  0  0  0  0  0  0
   10.5050    1.3104   21.9124 C   0  0  0  0  0  0  0  0  0  0  0  0
   11.5890   -1.8355   22.6307 H   0  0  0  0  0  0  0  0  0  0  0  0
    9.4889   -2.3960   21.4482 H   0  0  0  0  0  0  0  0  0  0  0  0
    7.5991   -1.7964   20.2794 H   0  0  0  0  0  0  0  0  0  0  0  0
    6.8071   -0.3467   20.9102 H   0  0  0  0  0  0  0  0  0  0  0  0
    8.6966    1.7802   20.8572 H   0  0  0  0  0  0  0  0  0  0  0  0
   10.7912    2.3436   22.0426 H   0  0  0  0  0  0  0  0  0  0  0  0
   14.8693    0.0325   22.5332 H   0  0  0  0  0  0  0  0  0  0  0  0
   13.8635   -1.2497   22.7867 H   0  0  0  0  0  0  0  0  0  0  0  0
  1  2  1  0  0  0  0
  2  3  2  0  0  0  0
  2  4  2  0  0  0  0
  2  5  1  0  0  0  0
  5  6  1  0  0  0  0
  5 17  2  0  0  0  0
  6  7  2  0  0  0  0
  7  8  1  0  0  0  0
  8  9  1  0  0  0  0
  8 16  2  0  0  0  0
  9 10  1  0  0  0  0
 10 11  1  0  0  0  0
 10 12  1  0  0  0  0
 10 13  1  0  0  0  0
 13 14  2  0  0  0  0
 13 15  2  0  0  0  0
 16 17  1  0  0  0  0
 18  6  1  0  0  0  0
 19  7  1  0  0  0  0
 20  9  1  0  0  0  0
 21  9  1  0  0  0  0
 22 16  1  0  0  0  0
 23 17  1  0  0  0  0
 24  1  1  0  0  0  0
 25  1  1  0  0  0  0
M  END
$$$$
