(selection)
 OpenBabel03112014033D

 46 47  0  0  1  0  0  0  0  0999 V2000
   13.8898    0.1007   23.5575 N   0  3  0  0  0  0  0  0  0  0  0  0
   12.8982    1.0032   22.8890 C   0  0  1  0  0  0  0  0  0  0  0  0
   11.5652    0.2460   22.8684 C   0  0  0  0  0  0  0  0  0  0  0  0
   11.6196   -1.0987   22.1300 C   0  0  0  0  0  0  0  0  0  0  0  0
   10.2481   -1.7689   22.0977 C   0  0  0  0  0  0  0  0  0  0  0  0
    9.4394   -1.0385   21.1824 O   0  0  0  0  0  0  0  0  0  0  0  0
    8.0724   -1.4465   21.2300 C   0  0  0  0  0  0  0  0  0  0  0  0
    7.3583   -0.8355   20.0553 C   0  0  0  0  0  0  0  0  0  0  0  0
    7.9986    0.1250   19.2573 C   0  0  0  0  0  0  0  0  0  0  0  0
    7.3477    0.6812   18.1559 C   0  0  0  0  0  0  0  0  0  0  0  0
    6.0515    0.2829   17.8385 C   0  0  0  0  0  0  0  0  0  0  0  0
    5.4037   -0.6702   18.6235 C   0  0  0  0  0  0  0  0  0  0  0  0
    6.0529   -1.2276   19.7265 C   0  0  0  0  0  0  0  0  0  0  0  0
   12.8246    2.3297   23.6518 C   0  0  0  0  0  0  0  0  0  0  0  0
   12.1096    3.4478   22.8860 C   0  0  0  0  0  0  0  0  0  0  0  0
   11.8747    4.6294   23.7787 C   0  0  0  0  0  0  0  0  0  0  0  0
   12.9349    5.2764   24.4197 C   0  0  0  0  0  0  0  0  0  0  0  0
   12.6785    6.4002   25.1960 C   0  0  0  0  0  0  0  0  0  0  0  0
   11.3714    6.8447   25.3043 C   0  0  0  0  0  0  0  0  0  0  0  0
   10.3266    6.2463   24.6958 N   0  0  0  0  0  0  0  0  0  0  0  0
   10.5992    5.1560   23.9515 C   0  0  0  0  0  0  0  0  0  0  0  0
   13.2191    1.1944   21.8650 H   0  0  0  0  0  0  0  0  0  0  0  0
   10.8218    0.8752   22.3791 H   0  0  0  0  0  0  0  0  0  0  0  0
   11.2493    0.0673   23.8962 H   0  0  0  0  0  0  0  0  0  0  0  0
   11.9559   -0.9288   21.1072 H   0  0  0  0  0  0  0  0  0  0  0  0
   12.3274   -1.7560   22.6350 H   0  0  0  0  0  0  0  0  0  0  0  0
   10.3463   -2.8024   21.7654 H   0  0  0  0  0  0  0  0  0  0  0  0
    9.7997   -1.7410   23.0908 H   0  0  0  0  0  0  0  0  0  0  0  0
    7.6168   -1.1021   22.1584 H   0  0  0  0  0  0  0  0  0  0  0  0
    8.0114   -2.5332   21.1721 H   0  0  0  0  0  0  0  0  0  0  0  0
    9.0043    0.4364   19.4980 H   0  0  0  0  0  0  0  0  0  0  0  0
    7.8491    1.4208   17.5493 H   0  0  0  0  0  0  0  0  0  0  0  0
    5.5483    0.7121   16.9847 H   0  0  0  0  0  0  0  0  0  0  0  0
    4.3980   -0.9777   18.3778 H   0  0  0  0  0  0  0  0  0  0  0  0
    5.5463   -1.9657   20.3306 H   0  0  0  0  0  0  0  0  0  0  0  0
   12.2909    2.1586   24.5867 H   0  0  0  0  0  0  0  0  0  0  0  0
   13.8383    2.6570   23.8827 H   0  0  0  0  0  0  0  0  0  0  0  0
   12.7258    3.7541   22.0406 H   0  0  0  0  0  0  0  0  0  0  0  0
   11.1523    3.0778   22.5187 H   0  0  0  0  0  0  0  0  0  0  0  0
   13.9439    4.9065   24.3127 H   0  0  0  0  0  0  0  0  0  0  0  0
   13.4807    6.9154   25.7035 H   0  0  0  0  0  0  0  0  0  0  0  0
   11.1778    7.7183   25.9091 H   0  0  0  0  0  0  0  0  0  0  0  0
    9.7758    4.6605   23.4587 H   0  0  0  0  0  0  0  0  0  0  0  0
   14.7896    0.5578   23.5955 H   0  0  0  0  0  0  0  0  0  0  0  0
   13.5776   -0.1060   24.4955 H   0  0  0  0  0  0  0  0  0  0  0  0
   13.9705   -0.7584   23.0326 H   0  0  0  0  0  0  0  0  0  0  0  0
  2  1  1  0  0  0  0
  2  3  1  0  0  0  0
  2 14  1  0  0  0  0
  2 22  1  6  0  0  0
  3  4  1  0  0  0  0
  4  5  1  0  0  0  0
  5  6  1  0  0  0  0
  6  7  1  0  0  0  0
  7  8  1  0  0  0  0
  8  9  2  0  0  0  0
  8 13  1  0  0  0  0
  9 10  1  0  0  0  0
 10 11  2  0  0  0  0
 11 12  1  0  0  0  0
 12 13  2  0  0  0  0
 14 15  1  0  0  0  0
 15 16  1  0  0  0  0
 16 17  2  0  0  0  0
 16 21  1  0  0  0  0
 17 18  1  0  0  0  0
 18 19  2  0  0  0  0
 19 20  1  0  0  0  0
 20 21  2  0  0  0  0
 23  3  1  0  0  0  0
 24  3  1  0  0  0  0
 25  4  1  0  0  0  0
 26  4  1  0  0  0  0
 27  5  1  0  0  0  0
 28  5  1  0  0  0  0
 29  7  1  0  0  0  0
 30  7  1  0  0  0  0
 31  9  1  0  0  0  0
 32 10  1  0  0  0  0
 33 11  1  0  0  0  0
 34 12  1  0  0  0  0
 35 13  1  0  0  0  0
 36 14  1  0  0  0  0
 37 14  1  0  0  0  0
 38 15  1  0  0  0  0
 39 15  1  0  0  0  0
 40 17  1  0  0  0  0
 41 18  1  0  0  0  0
 42 19  1  0  0  0  0
 43 21  1  0  0  0  0
 44  1  1  0  0  0  0
 45  1  1  0  0  0  0
 46  1  1  0  0  0  0
M  CHG  1   1   1
M  END
$$$$
