(selection)
 OpenBabel03112014033D

 33 34  0  0  1  0  0  0  0  0999 V2000
    9.6087    4.5727   23.1253 N   0  3  0  0  0  0  0  0  0  0  0  0
    9.0333    3.2726   22.7849 C   0  0  0  0  0  0  0  0  0  0  0  0
   10.0563    2.1783   23.0922 C   0  0  0  0  0  0  0  0  0  0  0  0
   11.3064    2.2048   22.1751 C   0  0  1  0  0  0  0  0  0  0  0  0
   12.1761    3.4403   22.4099 C   0  0  0  0  0  0  0  0  0  0  0  0
   12.7645    4.1555   21.3545 C   0  0  0  0  0  0  0  0  0  0  0  0
   13.7268    5.1375   21.6036 C   0  0  0  0  0  0  0  0  0  0  0  0
   14.1079    5.4320   22.9093 C   0  0  0  0  0  0  0  0  0  0  0  0
   13.4847    4.7864   23.9733 C   0  0  0  0  0  0  0  0  0  0  0  0
   12.5168    3.8048   23.7237 C   0  0  0  0  0  0  0  0  0  0  0  0
   12.0256    0.8581   22.2555 C   0  0  0  0  0  0  0  0  0  0  0  0
   13.2777    0.7721   22.8797 C   0  0  0  0  0  0  0  0  0  0  0  0
   13.9810   -0.4250   22.8214 C   0  0  0  0  0  0  0  0  0  0  0  0
   13.5263   -1.5364   22.2049 N   0  0  0  0  0  0  0  0  0  0  0  0
   12.3178   -1.4436   21.6198 C   0  0  0  0  0  0  0  0  0  0  0  0
   11.5439   -0.2895   21.6196 C   0  0  0  0  0  0  0  0  0  0  0  0
    8.7826    3.2507   21.7243 H   0  0  0  0  0  0  0  0  0  0  0  0
    8.1327    3.1063   23.3760 H   0  0  0  0  0  0  0  0  0  0  0  0
   10.3863    2.2984   24.1241 H   0  0  0  0  0  0  0  0  0  0  0  0
    9.5702    1.2079   22.9918 H   0  0  0  0  0  0  0  0  0  0  0  0
   10.9318    2.2876   21.1548 H   0  0  0  0  0  0  0  0  0  0  0  0
   12.4696    3.9439   20.3373 H   0  0  0  0  0  0  0  0  0  0  0  0
   14.1769    5.6704   20.7791 H   0  0  0  0  0  0  0  0  0  0  0  0
   14.8845    6.1589   23.0963 H   0  0  0  0  0  0  0  0  0  0  0  0
   13.7468    5.0417   24.9894 H   0  0  0  0  0  0  0  0  0  0  0  0
   12.0246    3.3205   24.5541 H   0  0  0  0  0  0  0  0  0  0  0  0
   13.6902    1.6246   23.3989 H   0  0  0  0  0  0  0  0  0  0  0  0
   14.9493   -0.4687   23.2978 H   0  0  0  0  0  0  0  0  0  0  0  0
   11.9264   -2.3179   21.1209 H   0  0  0  0  0  0  0  0  0  0  0  0
   10.5798   -0.2794   21.1329 H   0  0  0  0  0  0  0  0  0  0  0  0
    8.8956    5.2849   23.0587 H   0  0  0  0  0  0  0  0  0  0  0  0
    9.9690    4.5446   24.0684 H   0  0  0  0  0  0  0  0  0  0  0  0
   10.3593    4.7869   22.4844 H   0  0  0  0  0  0  0  0  0  0  0  0
  1  2  1  0  0  0  0
  2  3  1  0  0  0  0
  4  3  1  0  0  0  0
  4  5  1  0  0  0  0
  4 11  1  0  0  0  0
  4 21  1  6  0  0  0
  5  6  2  0  0  0  0
  5 10  1  0  0  0  0
  6  7  1  0  0  0  0
  7  8  2  0  0  0  0
  8  9  1  0  0  0  0
  9 10  2  0  0  0  0
 11 12  2  0  0  0  0
 11 16  1  0  0  0  0
 12 13  1  0  0  0  0
 13 14  2  0  0  0  0
 14 15  1  0  0  0  0
 15 16  2  0  0  0  0
 17  2  1  0  0  0  0
 18  2  1  0  0  0  0
 19  3  1  0  0  0  0
 20  3  1  0  0  0  0
 22  6  1  0  0  0  0
 23  7  1  0  0  0  0
 24  8  1  0  0  0  0
 25  9  1  0  0  0  0
 26 10  1  0  0  0  0
 27 12  1  0  0  0  0
 28 13  1  0  0  0  0
 29 15  1  0  0  0  0
 30 16  1  0  0  0  0
 31  1  1  0  0  0  0
 32  1  1  0  0  0  0
 33  1  1  0  0  0  0
M  CHG  1   1   1
M  END
$$$$
