(selection)
 OpenBabel03112014033D

 35 35  0  0  1  0  0  0  0  0999 V2000
    8.5309    5.2533   23.2200 C   0  0  0  0  0  0  0  0  0  0  0  0
    9.8840    4.9778   23.8535 C   0  0  0  0  0  0  0  0  0  0  0  0
   10.7090    3.9128   23.1247 C   0  0  0  0  0  0  0  0  0  0  0  0
   12.1100    3.6232   23.6982 C   0  0  1  0  0  0  0  0  0  0  0  0
   12.9073    2.6471   22.9372 N   0  0  0  0  0  0  0  0  0  0  0  0
   13.0220    1.1468   23.4713 S   0  0  0  0  0  0  0  0  0  0  0  0
   14.2557    0.4800   23.0553 O   0  0  0  0  0  0  0  0  0  0  0  0
   12.6633    0.9104   24.8657 O   0  0  0  0  0  0  0  0  0  0  0  0
   11.7769    0.1890   22.5657 C   0  0  0  0  0  0  0  0  0  0  0  0
   10.8372    0.8695   21.7884 C   0  0  0  0  0  0  0  0  0  0  0  0
    9.8119    0.1497   21.1782 C   0  0  0  0  0  0  0  0  0  0  0  0
    9.7317   -1.2356   21.3492 C   0  0  0  0  0  0  0  0  0  0  0  0
   10.6948   -1.9094   22.1034 C   0  0  0  0  0  0  0  0  0  0  0  0
   11.7358   -1.1992   22.6976 C   0  0  0  0  0  0  0  0  0  0  0  0
   12.9357    4.8655   24.0369 C   0  0  0  0  0  0  0  0  0  0  0  0
   13.0052    5.4038   25.2180 N   0  0  0  0  0  0  0  0  0  0  0  0
   13.6320    5.4718   23.0325 N   0  0  0  0  0  0  0  0  0  0  0  0
   10.4541    5.9068   23.8610 H   0  0  0  0  0  0  0  0  0  0  0  0
    9.7285    4.6551   24.8830 H   0  0  0  0  0  0  0  0  0  0  0  0
   10.1425    2.9818   23.1463 H   0  0  0  0  0  0  0  0  0  0  0  0
   10.8220    4.2201   22.0850 H   0  0  0  0  0  0  0  0  0  0  0  0
   11.9238    3.1423   24.6585 H   0  0  0  0  0  0  0  0  0  0  0  0
   13.3766    2.9235   22.0866 H   0  0  0  0  0  0  0  0  0  0  0  0
   10.9043    1.9400   21.6618 H   0  0  0  0  0  0  0  0  0  0  0  0
    9.0788    0.6622   20.5729 H   0  0  0  0  0  0  0  0  0  0  0  0
    8.9213   -1.7871   20.8960 H   0  0  0  0  0  0  0  0  0  0  0  0
   10.6327   -2.9806   22.2260 H   0  0  0  0  0  0  0  0  0  0  0  0
   12.5025   -1.7177   23.2542 H   0  0  0  0  0  0  0  0  0  0  0  0
   12.4987    4.9946   25.9901 H   0  0  0  0  0  0  0  0  0  0  0  0
   13.5657    6.2313   25.3636 H   0  0  0  0  0  0  0  0  0  0  0  0
   13.6005    5.0937   22.0965 H   0  0  0  0  0  0  0  0  0  0  0  0
   14.1790    6.2988   23.2250 H   0  0  0  0  0  0  0  0  0  0  0  0
    8.0091    6.0185   23.7948 H   0  0  0  0  0  0  0  0  0  0  0  0
    8.6731    5.6015   22.1970 H   0  0  0  0  0  0  0  0  0  0  0  0
    7.9397    4.3376   23.2132 H   0  0  0  0  0  0  0  0  0  0  0  0
  1  2  1  0  0  0  0
  2  3  1  0  0  0  0
  4  5  1  0  0  0  0
  4 22  1  1  0  0  0
  4  3  1  0  0  0  0
  4 15  1  0  0  0  0
  5  6  1  0  0  0  0
  6  7  2  0  0  0  0
  6  8  2  0  0  0  0
  6  9  1  0  0  0  0
  9 14  2  0  0  0  0
  9 10  1  0  0  0  0
 10 11  2  0  0  0  0
 11 12  1  0  0  0  0
 12 13  2  0  0  0  0
 13 14  1  0  0  0  0
 15 16  2  0  0  0  0
 15 17  2  0  0  0  0
 18  2  1  0  0  0  0
 19  2  1  0  0  0  0
 20  3  1  0  0  0  0
 21  3  1  0  0  0  0
 23  5  1  0  0  0  0
 24 10  1  0  0  0  0
 25 11  1  0  0  0  0
 26 12  1  0  0  0  0
 27 13  1  0  0  0  0
 28 14  1  0  0  0  0
 29 16  1  0  0  0  0
 30 16  1  0  0  0  0
 31 17  1  0  0  0  0
 32 17  1  0  0  0  0
 33  1  1  0  0  0  0
 34  1  1  0  0  0  0
 35  1  1  0  0  0  0
M  END
$$$$
