(selection)
 OpenBabel03112014033D

 25 25  0  0  0  0  0  0  0  0999 V2000
   12.3853    5.7915   25.7533 N   0  0  0  0  0  0  0  0  0  0  0  0
   12.0348    5.9569   24.2128 S   0  0  0  0  0  0  0  0  0  0  0  0
   10.6991    6.4856   23.9629 O   0  0  0  0  0  0  0  0  0  0  0  0
   13.0952    6.5605   23.4150 O   0  0  0  0  0  0  0  0  0  0  0  0
   11.9644    4.2820   23.5374 C   0  0  0  0  0  0  0  0  0  0  0  0
   10.7629    3.7369   23.0937 C   0  0  0  0  0  0  0  0  0  0  0  0
   10.7446    2.4160   22.6318 C   0  0  0  0  0  0  0  0  0  0  0  0
   11.9076    1.6309   22.6217 C   0  0  0  0  0  0  0  0  0  0  0  0
   11.7803    0.2777   22.2628 N   0  0  0  0  0  0  0  0  0  0  0  0
   12.7615   -0.5519   22.2148 C   0  0  0  0  0  0  0  0  0  0  0  0
   14.0944   -0.3899   22.4024 N   0  0  0  0  0  0  0  0  0  0  0  0
   12.5204   -1.8412   21.8845 N   0  0  0  0  0  0  0  0  0  0  0  0
   13.0977    2.1998   23.0987 C   0  0  0  0  0  0  0  0  0  0  0  0
   13.1382    3.5295   23.5252 C   0  0  0  0  0  0  0  0  0  0  0  0
    9.8573    4.3252   23.1057 H   0  0  0  0  0  0  0  0  0  0  0  0
    9.8170    1.9925   22.2761 H   0  0  0  0  0  0  0  0  0  0  0  0
   10.8596   -0.0646   22.0277 H   0  0  0  0  0  0  0  0  0  0  0  0
   13.9958    1.6011   23.1368 H   0  0  0  0  0  0  0  0  0  0  0  0
   14.0712    3.9711   23.8429 H   0  0  0  0  0  0  0  0  0  0  0  0
   14.4641    0.5193   22.6408 H   0  0  0  0  0  0  0  0  0  0  0  0
   14.7177   -1.1785   22.3038 H   0  0  0  0  0  0  0  0  0  0  0  0
   11.5766   -2.1454   21.6926 H   0  0  0  0  0  0  0  0  0  0  0  0
   13.2842   -2.4998   21.8297 H   0  0  0  0  0  0  0  0  0  0  0  0
   12.4383    6.7023   26.1867 H   0  0  0  0  0  0  0  0  0  0  0  0
   11.6663    5.2449   26.2054 H   0  0  0  0  0  0  0  0  0  0  0  0
  1  2  1  0  0  0  0
  2  3  2  0  0  0  0
  2  4  2  0  0  0  0
  2  5  1  0  0  0  0
  5  6  2  0  0  0  0
  5 14  1  0  0  0  0
  6  7  1  0  0  0  0
  7  8  2  0  0  0  0
  8  9  1  0  0  0  0
  8 13  1  0  0  0  0
  9 10  2  0  0  0  0
 10 11  2  0  0  0  0
 10 12  2  0  0  0  0
 13 14  2  0  0  0  0
 15  6  1  0  0  0  0
 16  7  1  0  0  0  0
 17  9  1  0  0  0  0
 18 13  1  0  0  0  0
 19 14  1  0  0  0  0
 20 11  1  0  0  0  0
 21 11  1  0  0  0  0
 22 12  1  0  0  0  0
 23 12  1  0  0  0  0
 24  1  1  0  0  0  0
 25  1  1  0  0  0  0
M  END
$$$$
