(selection)
 OpenBabel03112014033D

 29 29  0  0  1  0  0  0  0  0999 V2000
   13.7549   -1.4862   21.2255 N   0  0  0  0  0  0  0  0  0  0  0  0
   13.9572   -0.8709   22.4698 N   0  0  0  0  0  0  0  0  0  0  0  0
   13.1996    0.2266   22.8153 C   0  0  0  0  0  0  0  0  0  0  0  0
   13.4542    0.8191   23.9798 N   0  0  0  0  0  0  0  0  0  0  0  0
   12.2335    0.6445   21.9760 N   0  0  0  0  0  0  0  0  0  0  0  0
   11.3460    1.8228   22.1380 C   0  0  1  0  0  0  0  0  0  0  0  0
   10.1376    1.5054   23.0540 C   0  0  0  0  0  0  0  0  0  0  0  0
   10.5592    1.0501   24.3458 O   0  0  0  0  0  0  0  0  0  0  0  0
   12.1929    3.0352   22.4896 C   0  0  0  0  0  0  0  0  0  0  0  0
   12.7381    3.8144   21.4506 C   0  0  0  0  0  0  0  0  0  0  0  0
   13.5297    4.9311   21.7271 C   0  0  0  0  0  0  0  0  0  0  0  0
   13.7896    5.2927   23.0475 C   0  0  0  0  0  0  0  0  0  0  0  0
   13.2477    4.5449   24.0870 C   0  0  0  0  0  0  0  0  0  0  0  0
   12.4527    3.4295   23.8108 C   0  0  0  0  0  0  0  0  0  0  0  0
   14.6532   -1.2299   23.1077 H   0  0  0  0  0  0  0  0  0  0  0  0
   12.0972    0.0932   21.1408 H   0  0  0  0  0  0  0  0  0  0  0  0
   10.9299    2.0233   21.1507 H   0  0  0  0  0  0  0  0  0  0  0  0
    9.5332    0.7287   22.5854 H   0  0  0  0  0  0  0  0  0  0  0  0
    9.5335    2.4049   23.1723 H   0  0  0  0  0  0  0  0  0  0  0  0
   12.5408    3.5439   20.4238 H   0  0  0  0  0  0  0  0  0  0  0  0
   13.9408    5.5150   20.9169 H   0  0  0  0  0  0  0  0  0  0  0  0
   14.4095    6.1505   23.2626 H   0  0  0  0  0  0  0  0  0  0  0  0
   13.4419    4.8271   25.1112 H   0  0  0  0  0  0  0  0  0  0  0  0
   12.0315    2.8618   24.6273 H   0  0  0  0  0  0  0  0  0  0  0  0
   14.3062   -2.2913   20.9646 H   0  0  0  0  0  0  0  0  0  0  0  0
   13.0579   -1.1242   20.5905 H   0  0  0  0  0  0  0  0  0  0  0  0
   14.1874    0.4645   24.5772 H   0  0  0  0  0  0  0  0  0  0  0  0
   12.9142    1.6232   24.2660 H   0  0  0  0  0  0  0  0  0  0  0  0
    9.7947    0.9615   24.9196 H   0  0  0  0  0  0  0  0  0  0  0  0
  1  2  2  0  0  0  0
  2  3  2  0  0  0  0
  3  4  2  0  0  0  0
  3  5  2  0  0  0  0
  5  6  1  0  0  0  0
  6 17  1  6  0  0  0
  6  7  1  0  0  0  0
  6  9  1  0  0  0  0
  7  8  1  0  0  0  0
  9 10  2  0  0  0  0
  9 14  1  0  0  0  0
 10 11  1  0  0  0  0
 11 12  2  0  0  0  0
 12 13  1  0  0  0  0
 13 14  2  0  0  0  0
 15  2  1  0  0  0  0
 16  5  1  0  0  0  0
 18  7  1  0  0  0  0
 19  7  1  0  0  0  0
 20 10  1  0  0  0  0
 21 11  1  0  0  0  0
 22 12  1  0  0  0  0
 23 13  1  0  0  0  0
 24 14  1  0  0  0  0
 25  1  1  0  0  0  0
 26  1  1  0  0  0  0
 27  4  1  0  0  0  0
 28  4  1  0  0  0  0
 29  8  1  0  0  0  0
M  END
$$$$
