(selection)
 OpenBabel03112014033D

 31 32  0  0  1  0  0  0  0  0999 V2000
    7.5863    1.2267   19.5495 O   0  0  0  0  0  0  0  0  0  0  0  0
    7.6248   -0.1639   19.1349 S   0  0  0  0  0  0  0  0  0  0  0  0
    8.6276   -0.6084   18.1777 O   0  0  0  0  0  0  0  0  0  0  0  0
    7.7985   -1.0786   20.4799 O   0  0  0  0  0  0  0  0  0  0  0  0
    9.1043   -1.1846   21.0454 C   0  0  1  0  0  0  0  0  0  0  0  0
    9.5202    0.1967   21.5589 C   0  0  0  0  0  0  0  0  0  0  0  0
    8.6219    1.0290   22.2517 C   0  0  0  0  0  0  0  0  0  0  0  0
    9.0038    2.2951   22.6995 C   0  0  0  0  0  0  0  0  0  0  0  0
   10.2854    2.7659   22.4479 C   0  0  0  0  0  0  0  0  0  0  0  0
   11.1971    1.9598   21.7659 C   0  0  0  0  0  0  0  0  0  0  0  0
   10.8218    0.6820   21.3337 C   0  0  0  0  0  0  0  0  0  0  0  0
    9.1527   -2.2673   22.1119 C   0  0  0  0  0  0  0  0  0  0  0  0
   10.2244   -2.3245   23.0108 C   0  0  0  0  0  0  0  0  0  0  0  0
   10.2343   -3.3206   23.9773 C   0  0  0  0  0  0  0  0  0  0  0  0
    9.2682   -4.2516   24.1127 N   0  0  0  0  0  0  0  0  0  0  0  0
    8.2648   -4.2104   23.2154 C   0  0  0  0  0  0  0  0  0  0  0  0
    8.1741   -3.2653   22.2068 C   0  0  0  0  0  0  0  0  0  0  0  0
    5.9491   -0.7334   18.5986 C   0  0  0  0  0  0  0  0  0  0  0  0
    5.5240   -0.1196   17.4563 F   0  0  0  0  0  0  0  0  0  0  0  0
    5.9147   -2.0748   18.3498 F   0  0  0  0  0  0  0  0  0  0  0  0
    4.9920   -0.4940   19.5418 F   0  0  0  0  0  0  0  0  0  0  0  0
    9.7926   -1.4675   20.2490 H   0  0  0  0  0  0  0  0  0  0  0  0
    7.6170    0.6816   22.4409 H   0  0  0  0  0  0  0  0  0  0  0  0
    8.3009    2.9094   23.2426 H   0  0  0  0  0  0  0  0  0  0  0  0
   10.5754    3.7522   22.7788 H   0  0  0  0  0  0  0  0  0  0  0  0
   12.1955    2.3225   21.5707 H   0  0  0  0  0  0  0  0  0  0  0  0
   11.5408    0.0605   20.8207 H   0  0  0  0  0  0  0  0  0  0  0  0
   11.0290   -1.6064   22.9532 H   0  0  0  0  0  0  0  0  0  0  0  0
   11.0676   -3.3520   24.6636 H   0  0  0  0  0  0  0  0  0  0  0  0
    7.4870   -4.9563   23.2862 H   0  0  0  0  0  0  0  0  0  0  0  0
    7.3574   -3.2975   21.5009 H   0  0  0  0  0  0  0  0  0  0  0  0
  1  2  2  0  0  0  0
  2  3  2  0  0  0  0
  2  4  1  0  0  0  0
  2 18  1  0  0  0  0
  5  4  1  0  0  0  0
  5  6  1  0  0  0  0
  5 22  1  6  0  0  0
  5 12  1  0  0  0  0
  6  7  2  0  0  0  0
  6 11  1  0  0  0  0
  7  8  1  0  0  0  0
  8  9  2  0  0  0  0
  9 10  1  0  0  0  0
 10 11  2  0  0  0  0
 12 13  2  0  0  0  0
 12 17  1  0  0  0  0
 13 14  1  0  0  0  0
 14 15  2  0  0  0  0
 15 16  1  0  0  0  0
 16 17  2  0  0  0  0
 18 19  1  0  0  0  0
 18 20  1  0  0  0  0
 18 21  1  0  0  0  0
 23  7  1  0  0  0  0
 24  8  1  0  0  0  0
 25  9  1  0  0  0  0
 26 10  1  0  0  0  0
 27 11  1  0  0  0  0
 28 13  1  0  0  0  0
 29 14  1  0  0  0  0
 30 16  1  0  0  0  0
 31 17  1  0  0  0  0
M  END
$$$$
