(selection)
 OpenBabel03112014033D

 39 39  0  0  1  0  0  0  0  0999 V2000
    5.1538    0.9954   18.5847 C   0  0  0  0  0  0  0  0  0  0  0  0
    6.8394    0.4693   18.6906 S   0  0  0  0  0  0  0  0  0  0  0  0
    6.8663   -0.9774   18.7894 O   0  0  0  0  0  0  0  0  0  0  0  0
    7.5633    1.1456   17.6186 O   0  0  0  0  0  0  0  0  0  0  0  0
    7.3934    1.1451   20.2515 C   0  0  0  0  0  0  0  0  0  0  0  0
    8.8195    0.7282   20.6306 C   0  0  0  0  0  0  0  0  0  0  0  0
    9.4584    1.5030   21.7924 C   0  0  0  0  0  0  0  0  0  0  0  0
   10.8570    0.9864   22.1381 C   0  0  0  0  0  0  0  0  0  0  0  0
   11.5236    1.6591   23.3580 C   0  0  1  0  0  0  0  0  0  0  0  0
   12.7071    0.8902   23.9888 C   0  0  0  0  0  0  0  0  0  0  0  0
   13.8540    0.6938   23.0741 N   0  3  0  0  0  0  0  0  0  0  0  0
   11.8852    3.0979   22.9974 C   0  0  0  0  0  0  0  0  0  0  0  0
   12.6339    3.3467   21.8371 C   0  0  0  0  0  0  0  0  0  0  0  0
   13.0293    4.6443   21.5120 C   0  0  0  0  0  0  0  0  0  0  0  0
   12.6750    5.7140   22.3292 C   0  0  0  0  0  0  0  0  0  0  0  0
   11.9343    5.4862   23.4830 C   0  0  0  0  0  0  0  0  0  0  0  0
   11.5537    4.1876   23.8220 C   0  0  0  0  0  0  0  0  0  0  0  0
    7.3581    2.2327   20.1877 H   0  0  0  0  0  0  0  0  0  0  0  0
    6.7120    0.8177   21.0368 H   0  0  0  0  0  0  0  0  0  0  0  0
    9.4511    0.8624   19.7525 H   0  0  0  0  0  0  0  0  0  0  0  0
    8.8105   -0.3309   20.8882 H   0  0  0  0  0  0  0  0  0  0  0  0
    8.8215    1.4040   22.6714 H   0  0  0  0  0  0  0  0  0  0  0  0
    9.5267    2.5564   21.5209 H   0  0  0  0  0  0  0  0  0  0  0  0
   10.7810   -0.0817   22.3419 H   0  0  0  0  0  0  0  0  0  0  0  0
   11.5017    1.1276   21.2706 H   0  0  0  0  0  0  0  0  0  0  0  0
   10.7555    1.7220   24.1288 H   0  0  0  0  0  0  0  0  0  0  0  0
   13.0540    1.4488   24.8581 H   0  0  0  0  0  0  0  0  0  0  0  0
   12.3528   -0.0861   24.3195 H   0  0  0  0  0  0  0  0  0  0  0  0
   12.9065    2.5262   21.1899 H   0  0  0  0  0  0  0  0  0  0  0  0
   13.6138    4.8200   20.6210 H   0  0  0  0  0  0  0  0  0  0  0  0
   12.9748    6.7180   22.0675 H   0  0  0  0  0  0  0  0  0  0  0  0
   11.6535    6.3143   24.1169 H   0  0  0  0  0  0  0  0  0  0  0  0
   10.9963    4.0167   24.7311 H   0  0  0  0  0  0  0  0  0  0  0  0
   14.3611   -0.1373   23.3428 H   0  0  0  0  0  0  0  0  0  0  0  0
   13.5159    0.5905   22.1280 H   0  0  0  0  0  0  0  0  0  0  0  0
   14.4676    1.4943   23.1268 H   0  0  0  0  0  0  0  0  0  0  0  0
    4.7164    0.6304   17.6554 H   0  0  0  0  0  0  0  0  0  0  0  0
    4.5948    0.5955   19.4307 H   0  0  0  0  0  0  0  0  0  0  0  0
    5.1112    2.0844   18.6032 H   0  0  0  0  0  0  0  0  0  0  0  0
  1  2  1  0  0  0  0
  2  3  2  0  0  0  0
  2  4  2  0  0  0  0
  2  5  1  0  0  0  0
  5  6  1  0  0  0  0
  6  7  1  0  0  0  0
  7  8  1  0  0  0  0
  9 26  1  1  0  0  0
  9  8  1  0  0  0  0
  9 10  1  0  0  0  0
  9 12  1  0  0  0  0
 10 11  1  0  0  0  0
 12 13  2  0  0  0  0
 12 17  1  0  0  0  0
 13 14  1  0  0  0  0
 14 15  2  0  0  0  0
 15 16  1  0  0  0  0
 16 17  2  0  0  0  0
 18  5  1  0  0  0  0
 19  5  1  0  0  0  0
 20  6  1  0  0  0  0
 21  6  1  0  0  0  0
 22  7  1  0  0  0  0
 23  7  1  0  0  0  0
 24  8  1  0  0  0  0
 25  8  1  0  0  0  0
 27 10  1  0  0  0  0
 28 10  1  0  0  0  0
 29 13  1  0  0  0  0
 30 14  1  0  0  0  0
 31 15  1  0  0  0  0
 32 16  1  0  0  0  0
 33 17  1  0  0  0  0
 34 11  1  0  0  0  0
 35 11  1  0  0  0  0
 36 11  1  0  0  0  0
 37  1  1  0  0  0  0
 38  1  1  0  0  0  0
 39  1  1  0  0  0  0
M  CHG  1  11   1
M  END
$$$$
