(selection)
 OpenBabel03112014033D

 34 34  0  0  0  0  0  0  0  0999 V2000
    9.6341   -2.7386   22.4012 N   0  0  0  0  0  0  0  0  0  0  0  0
   10.6951   -2.6024   23.1004 C   0  0  0  0  0  0  0  0  0  0  0  0
   11.7661   -1.8173   22.8772 N   0  0  0  0  0  0  0  0  0  0  0  0
   11.9083   -0.9190   21.7496 C   0  0  0  0  0  0  0  0  0  0  0  0
   12.0241    0.5031   22.2443 C   0  0  0  0  0  0  0  0  0  0  0  0
   11.3233    1.5359   21.5988 C   0  0  0  0  0  0  0  0  0  0  0  0
   11.4242    2.8525   22.0525 C   0  0  0  0  0  0  0  0  0  0  0  0
   12.2267    3.1435   23.1574 C   0  0  0  0  0  0  0  0  0  0  0  0
   12.3676    4.8204   23.7138 S   0  0  0  0  0  0  0  0  0  0  0  0
   10.8238    5.4107   23.4324 N   0  0  0  0  0  0  0  0  0  0  0  0
   12.5525    4.8223   25.1453 O   0  0  0  0  0  0  0  0  0  0  0  0
   13.2468    5.5320   22.8151 O   0  0  0  0  0  0  0  0  0  0  0  0
   12.9552    2.1349   23.7930 C   0  0  0  0  0  0  0  0  0  0  0  0
   12.8525    0.8179   23.3343 C   0  0  0  0  0  0  0  0  0  0  0  0
   10.7885   -3.3365   24.2891 N   0  0  0  0  0  0  0  0  0  0  0  0
    9.9027   -4.2116   24.7845 C   0  0  0  0  0  0  0  0  0  0  0  0
   10.1354   -4.7901   25.9708 N   0  0  0  0  0  0  0  0  0  0  0  0
    8.7896   -4.5282   24.1305 N   0  0  0  0  0  0  0  0  0  0  0  0
   12.5242   -1.8576   23.5433 H   0  0  0  0  0  0  0  0  0  0  0  0
   12.8049   -1.1814   21.1881 H   0  0  0  0  0  0  0  0  0  0  0  0
   11.0358   -1.0081   21.1024 H   0  0  0  0  0  0  0  0  0  0  0  0
   10.7018    1.3095   20.7451 H   0  0  0  0  0  0  0  0  0  0  0  0
   10.8841    3.6420   21.5512 H   0  0  0  0  0  0  0  0  0  0  0  0
   13.5928    2.3706   24.6322 H   0  0  0  0  0  0  0  0  0  0  0  0
   13.4151    0.0358   23.8224 H   0  0  0  0  0  0  0  0  0  0  0  0
   11.6229   -3.1889   24.8387 H   0  0  0  0  0  0  0  0  0  0  0  0
    9.5249   -2.2182   21.5425 H   0  0  0  0  0  0  0  0  0  0  0  0
    8.9048   -3.3667   22.7073 H   0  0  0  0  0  0  0  0  0  0  0  0
   10.9745   -4.5655   26.4862 H   0  0  0  0  0  0  0  0  0  0  0  0
    9.4717   -5.4506   26.3494 H   0  0  0  0  0  0  0  0  0  0  0  0
    8.5926   -4.1054   23.2347 H   0  0  0  0  0  0  0  0  0  0  0  0
    8.1408   -5.1916   24.5294 H   0  0  0  0  0  0  0  0  0  0  0  0
   10.6981    6.2784   23.9337 H   0  0  0  0  0  0  0  0  0  0  0  0
   10.7004    5.5725   22.4431 H   0  0  0  0  0  0  0  0  0  0  0  0
  1  2  2  0  0  0  0
  2  3  2  0  0  0  0
  2 15  2  0  0  0  0
  3  4  1  0  0  0  0
  4  5  1  0  0  0  0
  5  6  2  0  0  0  0
  5 14  1  0  0  0  0
  6  7  1  0  0  0  0
  7  8  2  0  0  0  0
  8  9  1  0  0  0  0
  8 13  1  0  0  0  0
  9 10  1  0  0  0  0
  9 11  2  0  0  0  0
  9 12  2  0  0  0  0
 13 14  2  0  0  0  0
 15 16  2  0  0  0  0
 16 17  2  0  0  0  0
 16 18  2  0  0  0  0
 19  3  1  0  0  0  0
 20  4  1  0  0  0  0
 21  4  1  0  0  0  0
 22  6  1  0  0  0  0
 23  7  1  0  0  0  0
 24 13  1  0  0  0  0
 25 14  1  0  0  0  0
 26 15  1  0  0  0  0
 27  1  1  0  0  0  0
 28  1  1  0  0  0  0
 29 17  1  0  0  0  0
 30 17  1  0  0  0  0
 31 18  1  0  0  0  0
 32 18  1  0  0  0  0
 33 10  1  0  0  0  0
 34 10  1  0  0  0  0
M  END
$$$$
