(selection)
 OpenBabel03112014033D

 27 27  0  0  0  0  0  0  0  0999 V2000
    9.5543    2.7367   21.9266 O   0  0  0  0  0  0  0  0  0  0  0  0
    9.8923    1.6230   21.5741 C   0  0  0  0  0  0  0  0  0  0  0  0
   11.1560    1.0888   21.7901 N   0  0  0  0  0  0  0  0  0  0  0  0
   11.2949   -0.1767   22.5325 C   0  0  0  0  0  0  0  0  0  0  0  0
   12.7106   -1.1486   21.9001 P   0  0  0  0  0  0  0  0  0  0  0  0
   12.1561   -2.4327   22.5333 O   0  0  0  0  0  0  0  0  0  0  0  0
   14.0490   -2.0674   21.3023 O   0  0  0  0  0  0  0  0  0  0  0  0
    9.1272    0.7139   20.9108 O   0  0  0  0  0  0  0  0  0  0  0  0
    7.7697    1.0652   20.5960 C   0  0  0  0  0  0  0  0  0  0  0  0
    6.9917   -0.0195   19.8882 C   0  0  0  0  0  0  0  0  0  0  0  0
    6.3399   -1.0422   20.6055 C   0  0  0  0  0  0  0  0  0  0  0  0
    5.6080   -2.0287   19.9368 C   0  0  0  0  0  0  0  0  0  0  0  0
    5.5159   -2.0166   18.5448 C   0  0  0  0  0  0  0  0  0  0  0  0
    6.1395   -0.9986   17.8235 C   0  0  0  0  0  0  0  0  0  0  0  0
    6.8686   -0.0077   18.4912 C   0  0  0  0  0  0  0  0  0  0  0  0
   11.9752    1.5649   21.4404 H   0  0  0  0  0  0  0  0  0  0  0  0
   11.4559    0.0439   23.5877 H   0  0  0  0  0  0  0  0  0  0  0  0
   10.3807   -0.7601   22.4227 H   0  0  0  0  0  0  0  0  0  0  0  0
    7.2544    1.3019   21.5269 H   0  0  0  0  0  0  0  0  0  0  0  0
    7.7775    1.9551   19.9666 H   0  0  0  0  0  0  0  0  0  0  0  0
    6.4062   -1.0646   21.6832 H   0  0  0  0  0  0  0  0  0  0  0  0
    5.1114   -2.8041   20.5011 H   0  0  0  0  0  0  0  0  0  0  0  0
    4.9657   -2.7899   18.0294 H   0  0  0  0  0  0  0  0  0  0  0  0
    6.0596   -0.9748   16.7467 H   0  0  0  0  0  0  0  0  0  0  0  0
    7.3435    0.7777   17.9220 H   0  0  0  0  0  0  0  0  0  0  0  0
   11.2884   -2.6205   22.1679 H   0  0  0  0  0  0  0  0  0  0  0  0
   14.6394   -1.4913   20.8113 H   0  0  0  0  0  0  0  0  0  0  0  0
  1  2  2  0  0  0  0
  2  3  1  0  0  0  0
  2  8  1  0  0  0  0
  3  4  1  0  0  0  0
  4  5  1  0  0  0  0
  5  6  1  0  0  0  0
  5  7  1  0  0  0  0
  8  9  1  0  0  0  0
  9 10  1  0  0  0  0
 10 11  2  0  0  0  0
 10 15  1  0  0  0  0
 11 12  1  0  0  0  0
 12 13  2  0  0  0  0
 13 14  1  0  0  0  0
 14 15  2  0  0  0  0
 16  3  1  0  0  0  0
 17  4  1  0  0  0  0
 18  4  1  0  0  0  0
 19  9  1  0  0  0  0
 20  9  1  0  0  0  0
 21 11  1  0  0  0  0
 22 12  1  0  0  0  0
 23 13  1  0  0  0  0
 24 14  1  0  0  0  0
 25 15  1  0  0  0  0
 26  6  1  0  0  0  0
 27  7  1  0  0  0  0
M  END
$$$$
