(selection)
 OpenBabel03112014033D

 31 31  0  0  1  0  0  0  0  0999 V2000
   11.0250    0.1534   24.7176 C   0  0  0  0  0  0  0  0  0  0  0  0
    9.9242   -0.0231   23.6620 C   0  0  0  0  0  0  0  0  0  0  0  0
    8.5643    0.0289   24.3756 C   0  0  0  0  0  0  0  0  0  0  0  0
   10.0366    1.0509   22.5438 C   0  0  1  0  0  0  0  0  0  0  0  0
   11.4235    1.1370   21.8501 C   0  0  0  0  0  0  0  0  0  0  0  0
   11.9029    0.0479   21.4199 O   0  0  0  0  0  0  0  0  0  0  0  0
   11.9262    2.2997   21.8069 O   0  0  0  0  0  0  0  0  0  0  0  0
    8.9764    0.8763   21.4540 C   0  0  0  0  0  0  0  0  0  0  0  0
    9.1393   -0.1210   20.4802 C   0  0  0  0  0  0  0  0  0  0  0  0
    8.2204   -0.2577   19.4393 C   0  0  0  0  0  0  0  0  0  0  0  0
    7.1204    0.6004   19.3794 C   0  0  0  0  0  0  0  0  0  0  0  0
    5.9591    0.4403   18.0516 S   0  0  0  0  0  0  0  0  0  0  0  0
    6.2431   -1.1449   17.5676 N   0  0  0  0  0  0  0  0  0  0  0  0
    4.6220    0.4801   18.5924 O   0  0  0  0  0  0  0  0  0  0  0  0
    6.3810    1.2911   16.9608 O   0  0  0  0  0  0  0  0  0  0  0  0
    6.9354    1.5949   20.3427 C   0  0  0  0  0  0  0  0  0  0  0  0
    7.8574    1.7229   21.3828 C   0  0  0  0  0  0  0  0  0  0  0  0
   10.0374   -1.0072   23.2073 H   0  0  0  0  0  0  0  0  0  0  0  0
    9.8548    2.0181   23.0124 H   0  0  0  0  0  0  0  0  0  0  0  0
    9.9852   -0.7900   20.5372 H   0  0  0  0  0  0  0  0  0  0  0  0
    8.3586   -1.0201   18.6869 H   0  0  0  0  0  0  0  0  0  0  0  0
    6.0860    2.2593   20.2832 H   0  0  0  0  0  0  0  0  0  0  0  0
    7.7093    2.4793   22.1394 H   0  0  0  0  0  0  0  0  0  0  0  0
   12.0014    0.1199   24.2342 H   0  0  0  0  0  0  0  0  0  0  0  0
   10.8994    1.1146   25.2160 H   0  0  0  0  0  0  0  0  0  0  0  0
   10.9557   -0.6487   25.4524 H   0  0  0  0  0  0  0  0  0  0  0  0
    7.7650   -0.0945   23.6449 H   0  0  0  0  0  0  0  0  0  0  0  0
    8.5099   -0.7728   25.1121 H   0  0  0  0  0  0  0  0  0  0  0  0
    8.4534    0.9906   24.8765 H   0  0  0  0  0  0  0  0  0  0  0  0
    5.5316   -1.4291   16.9095 H   0  0  0  0  0  0  0  0  0  0  0  0
    6.2176   -1.7526   18.3739 H   0  0  0  0  0  0  0  0  0  0  0  0
  1  2  1  0  0  0  0
  2  3  1  0  0  0  0
  4  8  1  0  0  0  0
  4  2  1  0  0  0  0
  4 19  1  1  0  0  0
  4  5  1  0  0  0  0
  5  6  2  0  0  0  0
  5  7  2  0  0  0  0
  8 17  1  0  0  0  0
  8  9  2  0  0  0  0
  9 10  1  0  0  0  0
 10 11  2  0  0  0  0
 11 12  1  0  0  0  0
 11 16  1  0  0  0  0
 12 13  1  0  0  0  0
 12 15  2  0  0  0  0
 12 14  2  0  0  0  0
 16 17  2  0  0  0  0
 18  2  1  0  0  0  0
 20  9  1  0  0  0  0
 21 10  1  0  0  0  0
 22 16  1  0  0  0  0
 23 17  1  0  0  0  0
 24  1  1  0  0  0  0
 25  1  1  0  0  0  0
 26  1  1  0  0  0  0
 27  3  1  0  0  0  0
 28  3  1  0  0  0  0
 29  3  1  0  0  0  0
 30 13  1  0  0  0  0
 31 13  1  0  0  0  0
M  END
$$$$
