(selection)
 OpenBabel03112014033D

 46 47  0  0  1  0  0  0  0  0999 V2000
   13.9503    0.0120   23.4406 N   0  3  0  0  0  0  0  0  0  0  0  0
   12.9281    0.8524   22.8208 C   0  0  1  0  0  0  0  0  0  0  0  0
   11.5593    0.1571   22.7922 C   0  0  0  0  0  0  0  0  0  0  0  0
   11.5739   -1.1981   22.0924 C   0  0  0  0  0  0  0  0  0  0  0  0
   10.1724   -1.7827   22.0551 C   0  0  0  0  0  0  0  0  0  0  0  0
    9.4097   -1.0290   21.1250 O   0  0  0  0  0  0  0  0  0  0  0  0
    8.0473   -1.4462   21.1307 C   0  0  0  0  0  0  0  0  0  0  0  0
    7.3026   -0.8410   19.9728 C   0  0  0  0  0  0  0  0  0  0  0  0
    7.9399    0.1276   19.1862 C   0  0  0  0  0  0  0  0  0  0  0  0
    7.2827    0.7026   18.1035 C   0  0  0  0  0  0  0  0  0  0  0  0
    5.9860    0.3051   17.7799 C   0  0  0  0  0  0  0  0  0  0  0  0
    5.3513   -0.6725   18.5411 C   0  0  0  0  0  0  0  0  0  0  0  0
    6.0073   -1.2521   19.6292 C   0  0  0  0  0  0  0  0  0  0  0  0
   12.8304    2.1619   23.6193 C   0  0  0  0  0  0  0  0  0  0  0  0
   12.1192    3.2709   22.8394 C   0  0  0  0  0  0  0  0  0  0  0  0
   11.9269    4.5073   23.6828 C   0  0  0  0  0  0  0  0  0  0  0  0
   10.6554    5.0628   23.8523 C   0  0  0  0  0  0  0  0  0  0  0  0
   10.5055    6.1781   24.6664 C   0  0  0  0  0  0  0  0  0  0  0  0
   11.5765    6.7117   25.2737 N   0  0  0  0  0  0  0  0  0  0  0  0
   12.8157    6.2204   25.1121 C   0  0  0  0  0  0  0  0  0  0  0  0
   13.0210    5.1117   24.3044 C   0  0  0  0  0  0  0  0  0  0  0  0
   13.2301    1.0822   21.7990 H   0  0  0  0  0  0  0  0  0  0  0  0
   11.2268    0.0100   23.8198 H   0  0  0  0  0  0  0  0  0  0  0  0
   10.8471    0.8065   22.2832 H   0  0  0  0  0  0  0  0  0  0  0  0
   12.2328   -1.8764   22.6346 H   0  0  0  0  0  0  0  0  0  0  0  0
   11.9413   -1.0748   21.0736 H   0  0  0  0  0  0  0  0  0  0  0  0
   10.2145   -2.8255   21.7405 H   0  0  0  0  0  0  0  0  0  0  0  0
    9.7188   -1.7146   23.0439 H   0  0  0  0  0  0  0  0  0  0  0  0
    7.5795   -1.1284   22.0625 H   0  0  0  0  0  0  0  0  0  0  0  0
    8.0034   -2.5329   21.0583 H   0  0  0  0  0  0  0  0  0  0  0  0
    8.9494    0.4302   19.4224 H   0  0  0  0  0  0  0  0  0  0  0  0
    7.7779    1.4586   17.5122 H   0  0  0  0  0  0  0  0  0  0  0  0
    5.4754    0.7544   16.9410 H   0  0  0  0  0  0  0  0  0  0  0  0
    4.3482   -0.9837   18.2893 H   0  0  0  0  0  0  0  0  0  0  0  0
    5.5150   -2.0197   20.2079 H   0  0  0  0  0  0  0  0  0  0  0  0
   12.2767    1.9705   24.5385 H   0  0  0  0  0  0  0  0  0  0  0  0
   13.8357    2.4970   23.8746 H   0  0  0  0  0  0  0  0  0  0  0  0
   12.7177    3.5284   21.9656 H   0  0  0  0  0  0  0  0  0  0  0  0
   11.1454    2.9080   22.5107 H   0  0  0  0  0  0  0  0  0  0  0  0
    9.7995    4.6298   23.3560 H   0  0  0  0  0  0  0  0  0  0  0  0
    9.5285    6.6152   24.8104 H   0  0  0  0  0  0  0  0  0  0  0  0
   13.6518    6.6882   25.6106 H   0  0  0  0  0  0  0  0  0  0  0  0
   14.0168    4.7201   24.1579 H   0  0  0  0  0  0  0  0  0  0  0  0
   14.0295   -0.8552   22.9289 H   0  0  0  0  0  0  0  0  0  0  0  0
   13.6904   -0.1840   24.3967 H   0  0  0  0  0  0  0  0  0  0  0  0
   14.8375    0.4943   23.4251 H   0  0  0  0  0  0  0  0  0  0  0  0
  2  3  1  0  0  0  0
  2 14  1  0  0  0  0
  2 22  1  6  0  0  0
  2  1  1  0  0  0  0
  3  4  1  0  0  0  0
  4  5  1  0  0  0  0
  5  6  1  0  0  0  0
  6  7  1  0  0  0  0
  7  8  1  0  0  0  0
  8  9  1  0  0  0  0
  8 13  2  0  0  0  0
  9 10  2  0  0  0  0
 10 11  1  0  0  0  0
 11 12  2  0  0  0  0
 12 13  1  0  0  0  0
 14 15  1  0  0  0  0
 15 16  1  0  0  0  0
 16 17  2  0  0  0  0
 16 21  1  0  0  0  0
 17 18  1  0  0  0  0
 18 19  2  0  0  0  0
 19 20  1  0  0  0  0
 20 21  2  0  0  0  0
 23  3  1  0  0  0  0
 24  3  1  0  0  0  0
 25  4  1  0  0  0  0
 26  4  1  0  0  0  0
 27  5  1  0  0  0  0
 28  5  1  0  0  0  0
 29  7  1  0  0  0  0
 30  7  1  0  0  0  0
 31  9  1  0  0  0  0
 32 10  1  0  0  0  0
 33 11  1  0  0  0  0
 34 12  1  0  0  0  0
 35 13  1  0  0  0  0
 36 14  1  0  0  0  0
 37 14  1  0  0  0  0
 38 15  1  0  0  0  0
 39 15  1  0  0  0  0
 40 17  1  0  0  0  0
 41 18  1  0  0  0  0
 42 20  1  0  0  0  0
 43 21  1  0  0  0  0
 44  1  1  0  0  0  0
 45  1  1  0  0  0  0
 46  1  1  0  0  0  0
M  CHG  1   1   1
M  END
$$$$
