(selection)
 OpenBabel03112014033D

 26 26  0  0  0  0  0  0  0  0999 V2000
    9.7353   -4.9986   25.1045 C   0  0  0  0  0  0  0  0  0  0  0  0
   10.3888   -4.0002   24.3236 O   0  0  0  0  0  0  0  0  0  0  0  0
   10.1933   -2.7293   24.7510 C   0  0  0  0  0  0  0  0  0  0  0  0
    9.4969   -2.3905   25.6953 O   0  0  0  0  0  0  0  0  0  0  0  0
   10.9402   -1.7723   23.8900 C   0  0  0  0  0  0  0  0  0  0  0  0
   11.5002   -2.2466   22.6978 C   0  0  0  0  0  0  0  0  0  0  0  0
   12.2461   -1.3907   21.8877 C   0  0  0  0  0  0  0  0  0  0  0  0
   12.4369   -0.0587   22.2662 C   0  0  0  0  0  0  0  0  0  0  0  0
   11.8681    0.4397   23.4453 C   0  0  0  0  0  0  0  0  0  0  0  0
   12.1297    1.8321   23.8377 C   0  0  0  0  0  0  0  0  0  0  0  0
   12.7278    2.7302   23.0403 C   0  0  0  0  0  0  0  0  0  0  0  0
   12.9394    4.1379   23.4837 C   0  0  0  0  0  0  0  0  0  0  0  0
   12.6830    4.5203   24.6264 O   0  0  0  0  0  0  0  0  0  0  0  0
   13.4916    5.1593   22.4631 C   0  0  0  0  0  0  0  0  0  0  0  0
   13.7976    4.6804   21.3215 O   0  0  0  0  0  0  0  0  0  0  0  0
   13.5960    6.3742   22.8239 O   0  0  0  0  0  0  0  0  0  0  0  0
   11.1230   -0.4302   24.2545 C   0  0  0  0  0  0  0  0  0  0  0  0
   11.3545   -3.2759   22.4052 H   0  0  0  0  0  0  0  0  0  0  0  0
   12.6765   -1.7573   20.9675 H   0  0  0  0  0  0  0  0  0  0  0  0
   13.0297    0.5938   21.6423 H   0  0  0  0  0  0  0  0  0  0  0  0
   11.8232    2.1500   24.8233 H   0  0  0  0  0  0  0  0  0  0  0  0
   13.0622    2.4278   22.0589 H   0  0  0  0  0  0  0  0  0  0  0  0
   10.6843   -0.0620   25.1701 H   0  0  0  0  0  0  0  0  0  0  0  0
    9.9611   -5.9843   24.6977 H   0  0  0  0  0  0  0  0  0  0  0  0
   10.0870   -4.9417   26.1346 H   0  0  0  0  0  0  0  0  0  0  0  0
    8.6583   -4.8329   25.0786 H   0  0  0  0  0  0  0  0  0  0  0  0
  1  2  1  0  0  0  0
  2  3  1  0  0  0  0
  3  4  2  0  0  0  0
  3  5  1  0  0  0  0
  5  6  2  0  0  0  0
  5 17  1  0  0  0  0
  6  7  1  0  0  0  0
  7  8  2  0  0  0  0
  8  9  1  0  0  0  0
  9 10  1  0  0  0  0
  9 17  2  0  0  0  0
 10 11  2  0  0  0  0
 11 12  2  0  0  0  0
 12 13  2  0  0  0  0
 12 14  2  0  0  0  0
 14 15  2  0  0  0  0
 14 16  2  0  0  0  0
 18  6  1  0  0  0  0
 19  7  1  0  0  0  0
 20  8  1  0  0  0  0
 21 10  1  0  0  0  0
 22 11  1  0  0  0  0
 23 17  1  0  0  0  0
 24  1  1  0  0  0  0
 25  1  1  0  0  0  0
 26  1  1  0  0  0  0
M  END
$$$$
