(selection)
 OpenBabel03112014033D

 38 39  0  0  0  0  0  0  0  0999 V2000
   11.0302   -2.0565   21.7913 N   0  0  0  0  0  0  0  0  0  0  0  0
   10.7553   -0.7338   21.9121 C   0  0  0  0  0  0  0  0  0  0  0  0
    9.6063   -0.1637   21.9874 N   0  0  0  0  0  0  0  0  0  0  0  0
    8.3906   -0.9590   21.9389 C   0  0  0  0  0  0  0  0  0  0  0  0
    7.6649   -0.7553   20.6277 C   0  0  0  0  0  0  0  0  0  0  0  0
    6.3673   -1.2524   20.4539 C   0  0  0  0  0  0  0  0  0  0  0  0
    5.6958   -1.0660   19.2459 C   0  0  0  0  0  0  0  0  0  0  0  0
    6.3240   -0.4102   18.1910 C   0  0  0  0  0  0  0  0  0  0  0  0
    7.6221    0.0774   18.3468 C   0  0  0  0  0  0  0  0  0  0  0  0
    8.2902   -0.0991   19.5625 C   0  0  0  0  0  0  0  0  0  0  0  0
   11.9129   -0.0171   21.9526 N   0  0  0  0  0  0  0  0  0  0  0  0
   11.8560    1.4430   22.1033 C   0  0  0  0  0  0  0  0  0  0  0  0
   12.7816    1.9232   23.2225 C   0  0  0  0  0  0  0  0  0  0  0  0
   12.9333    3.4198   23.2215 C   0  0  0  0  0  0  0  0  0  0  0  0
   13.5646    4.0932   22.1725 C   0  0  0  0  0  0  0  0  0  0  0  0
   13.6530    5.4832   22.2015 C   0  0  0  0  0  0  0  0  0  0  0  0
   13.1057    6.1563   23.2782 C   0  0  0  0  0  0  0  0  0  0  0  0
   12.4856    5.5416   24.3078 N   0  0  0  0  0  0  0  0  0  0  0  0
   12.4091    4.1937   24.2540 C   0  0  0  0  0  0  0  0  0  0  0  0
    9.5476    0.8403   22.0806 H   0  0  0  0  0  0  0  0  0  0  0  0
    8.6491   -2.0127   22.0437 H   0  0  0  0  0  0  0  0  0  0  0  0
    7.7369   -0.6662   22.7605 H   0  0  0  0  0  0  0  0  0  0  0  0
    5.8836   -1.7834   21.2604 H   0  0  0  0  0  0  0  0  0  0  0  0
    4.6862   -1.4313   19.1286 H   0  0  0  0  0  0  0  0  0  0  0  0
    5.8068   -0.2788   17.2521 H   0  0  0  0  0  0  0  0  0  0  0  0
    8.1096    0.5898   17.5306 H   0  0  0  0  0  0  0  0  0  0  0  0
    9.2968    0.2742   19.6798 H   0  0  0  0  0  0  0  0  0  0  0  0
   12.8043   -0.4864   21.8795 H   0  0  0  0  0  0  0  0  0  0  0  0
   12.1611    1.9086   21.1662 H   0  0  0  0  0  0  0  0  0  0  0  0
   10.8326    1.7393   22.3335 H   0  0  0  0  0  0  0  0  0  0  0  0
   13.7633    1.4695   23.0867 H   0  0  0  0  0  0  0  0  0  0  0  0
   12.3731    1.6074   24.1825 H   0  0  0  0  0  0  0  0  0  0  0  0
   13.9815    3.5395   21.3443 H   0  0  0  0  0  0  0  0  0  0  0  0
   14.1379    6.0227   21.4013 H   0  0  0  0  0  0  0  0  0  0  0  0
   13.1783    7.2337   23.2965 H   0  0  0  0  0  0  0  0  0  0  0  0
   11.9092    3.6834   25.0640 H   0  0  0  0  0  0  0  0  0  0  0  0
   10.2762   -2.7272   21.7487 H   0  0  0  0  0  0  0  0  0  0  0  0
   11.9889   -2.3708   21.7440 H   0  0  0  0  0  0  0  0  0  0  0  0
  1  2  2  0  0  0  0
  2  3  2  0  0  0  0
  2 11  2  0  0  0  0
  3  4  1  0  0  0  0
  4  5  1  0  0  0  0
  5  6  2  0  0  0  0
  5 10  1  0  0  0  0
  6  7  1  0  0  0  0
  7  8  2  0  0  0  0
  8  9  1  0  0  0  0
  9 10  2  0  0  0  0
 11 12  1  0  0  0  0
 12 13  1  0  0  0  0
 13 14  1  0  0  0  0
 14 19  2  0  0  0  0
 14 15  1  0  0  0  0
 15 16  2  0  0  0  0
 16 17  1  0  0  0  0
 17 18  2  0  0  0  0
 18 19  1  0  0  0  0
 20  3  1  0  0  0  0
 21  4  1  0  0  0  0
 22  4  1  0  0  0  0
 23  6  1  0  0  0  0
 24  7  1  0  0  0  0
 25  8  1  0  0  0  0
 26  9  1  0  0  0  0
 27 10  1  0  0  0  0
 28 11  1  0  0  0  0
 29 12  1  0  0  0  0
 30 12  1  0  0  0  0
 31 13  1  0  0  0  0
 32 13  1  0  0  0  0
 33 15  1  0  0  0  0
 34 16  1  0  0  0  0
 35 17  1  0  0  0  0
 36 19  1  0  0  0  0
 37  1  1  0  0  0  0
 38  1  1  0  0  0  0
M  END
$$$$
