(selection)
 OpenBabel03112014033D

 42 43  0  0  1  0  0  0  0  0999 V2000
    9.9578   -1.2842   24.8486 C   0  0  0  0  0  0  0  0  0  0  0  0
   10.7745   -0.5983   23.7471 C   0  0  1  0  0  0  0  0  0  0  0  0
    9.7893   -0.2090   22.7526 O   0  0  0  0  0  0  0  0  0  0  0  0
    9.4269   -1.2822   21.8844 C   0  0  0  0  0  0  0  0  0  0  0  0
    8.3377   -0.9768   20.8949 C   0  0  0  0  0  0  0  0  0  0  0  0
    8.7014   -0.3223   19.7020 C   0  0  0  0  0  0  0  0  0  0  0  0
    7.7594   -0.0656   18.7104 C   0  0  0  0  0  0  0  0  0  0  0  0
    6.4454   -0.4769   18.8951 C   0  0  0  0  0  0  0  0  0  0  0  0
    6.0786   -1.1417   20.0652 C   0  0  0  0  0  0  0  0  0  0  0  0
    7.0186   -1.3986   21.0675 C   0  0  0  0  0  0  0  0  0  0  0  0
   11.6025    0.6177   24.2978 C   0  0  1  0  0  0  0  0  0  0  0  0
   12.4923    0.3186   25.4347 N   0  3  0  0  0  0  0  0  0  0  0  0
   12.5504    1.1716   23.2215 C   0  0  0  0  0  0  0  0  0  0  0  0
   13.7249    0.7970   23.1474 O   0  0  0  0  0  0  0  0  0  0  0  0
   11.9809    2.1987   22.2535 C   0  0  0  0  0  0  0  0  0  0  0  0
   12.5442    3.5690   22.5277 C   0  0  0  0  0  0  0  0  0  0  0  0
   13.0954    4.3395   21.5056 C   0  0  0  0  0  0  0  0  0  0  0  0
   13.5070    5.6415   21.7773 C   0  0  0  0  0  0  0  0  0  0  0  0
   13.3542    6.1231   23.0673 C   0  0  0  0  0  0  0  0  0  0  0  0
   12.8453    5.4010   24.0852 N   0  0  0  0  0  0  0  0  0  0  0  0
   12.4466    4.1440   23.7925 C   0  0  0  0  0  0  0  0  0  0  0  0
   11.4579   -1.3240   23.3062 H   0  0  0  0  0  0  0  0  0  0  0  0
   10.3153   -1.5758   21.3252 H   0  0  0  0  0  0  0  0  0  0  0  0
    9.1099   -2.1273   22.4955 H   0  0  0  0  0  0  0  0  0  0  0  0
    9.7263   -0.0152   19.5547 H   0  0  0  0  0  0  0  0  0  0  0  0
    8.0473    0.4487   17.8054 H   0  0  0  0  0  0  0  0  0  0  0  0
    5.7069   -0.2817   18.1317 H   0  0  0  0  0  0  0  0  0  0  0  0
    5.0558   -1.4619   20.1985 H   0  0  0  0  0  0  0  0  0  0  0  0
    6.7265   -1.9190   21.9677 H   0  0  0  0  0  0  0  0  0  0  0  0
   10.9106    1.4063   24.5936 H   0  0  0  0  0  0  0  0  0  0  0  0
   12.2341    1.9067   21.2343 H   0  0  0  0  0  0  0  0  0  0  0  0
   10.8965    2.2288   22.3592 H   0  0  0  0  0  0  0  0  0  0  0  0
   13.2023    3.9304   20.5118 H   0  0  0  0  0  0  0  0  0  0  0  0
   13.9345    6.2603   21.0022 H   0  0  0  0  0  0  0  0  0  0  0  0
   13.6614    7.1385   23.2695 H   0  0  0  0  0  0  0  0  0  0  0  0
   12.0260    3.5478   24.5888 H   0  0  0  0  0  0  0  0  0  0  0  0
   11.9376    0.1501   26.2617 H   0  0  0  0  0  0  0  0  0  0  0  0
   13.1072    1.1034   25.5962 H   0  0  0  0  0  0  0  0  0  0  0  0
   13.0421   -0.5023   25.2250 H   0  0  0  0  0  0  0  0  0  0  0  0
    9.4013   -2.1190   24.4226 H   0  0  0  0  0  0  0  0  0  0  0  0
    9.2611   -0.5676   25.2836 H   0  0  0  0  0  0  0  0  0  0  0  0
   10.6302   -1.6533   25.6230 H   0  0  0  0  0  0  0  0  0  0  0  0
  2 11  1  0  0  0  0
  2  1  1  0  0  0  0
  2 22  1  6  0  0  0
  2  3  1  0  0  0  0
  3  4  1  0  0  0  0
  4  5  1  0  0  0  0
  5  6  2  0  0  0  0
  5 10  1  0  0  0  0
  6  7  1  0  0  0  0
  7  8  2  0  0  0  0
  8  9  1  0  0  0  0
  9 10  2  0  0  0  0
 11 30  1  1  0  0  0
 11 12  1  0  0  0  0
 11 13  1  0  0  0  0
 13 14  2  0  0  0  0
 13 15  1  0  0  0  0
 15 16  1  0  0  0  0
 16 17  2  0  0  0  0
 16 21  1  0  0  0  0
 17 18  1  0  0  0  0
 18 19  2  0  0  0  0
 19 20  1  0  0  0  0
 20 21  2  0  0  0  0
 23  4  1  0  0  0  0
 24  4  1  0  0  0  0
 25  6  1  0  0  0  0
 26  7  1  0  0  0  0
 27  8  1  0  0  0  0
 28  9  1  0  0  0  0
 29 10  1  0  0  0  0
 31 15  1  0  0  0  0
 32 15  1  0  0  0  0
 33 17  1  0  0  0  0
 34 18  1  0  0  0  0
 35 19  1  0  0  0  0
 36 21  1  0  0  0  0
 37 12  1  0  0  0  0
 38 12  1  0  0  0  0
 39 12  1  0  0  0  0
 40  1  1  0  0  0  0
 41  1  1  0  0  0  0
 42  1  1  0  0  0  0
M  CHG  1  12   1
M  END
$$$$
