(selection)
 OpenBabel03112014033D

 25 25  0  0  0  0  0  0  0  0999 V2000
   13.0132    2.6841   23.5454 N   0  0  0  0  0  0  0  0  0  0  0  0
   13.1452    1.0127   23.6498 S   0  0  0  0  0  0  0  0  0  0  0  0
   14.4017    0.6766   23.0179 O   0  0  0  0  0  0  0  0  0  0  0  0
   12.8655    0.6840   25.0263 O   0  0  0  0  0  0  0  0  0  0  0  0
   11.8021    0.4968   22.6288 C   0  0  0  0  0  0  0  0  0  0  0  0
   11.5006   -0.8561   22.4715 C   0  0  0  0  0  0  0  0  0  0  0  0
   10.4425   -1.2279   21.6342 C   0  0  0  0  0  0  0  0  0  0  0  0
    9.6757   -0.2571   20.9707 C   0  0  0  0  0  0  0  0  0  0  0  0
    8.5946   -0.6832   20.0716 C   0  0  0  0  0  0  0  0  0  0  0  0
    7.8048    0.1710   19.4035 C   0  0  0  0  0  0  0  0  0  0  0  0
    6.7332   -0.3262   18.4957 C   0  0  0  0  0  0  0  0  0  0  0  0
    6.6835   -1.4930   18.1080 O   0  0  0  0  0  0  0  0  0  0  0  0
    5.6454    0.6613   18.0187 C   0  0  0  0  0  0  0  0  0  0  0  0
    5.9625    1.8957   18.0769 O   0  0  0  0  0  0  0  0  0  0  0  0
    4.5391    0.1843   17.6124 O   0  0  0  0  0  0  0  0  0  0  0  0
    9.9972    1.0964   21.1465 C   0  0  0  0  0  0  0  0  0  0  0  0
   11.0469    1.4762   21.9812 C   0  0  0  0  0  0  0  0  0  0  0  0
   12.0771   -1.6080   22.9899 H   0  0  0  0  0  0  0  0  0  0  0  0
   10.2132   -2.2743   21.4969 H   0  0  0  0  0  0  0  0  0  0  0  0
    8.4265   -1.7421   19.9414 H   0  0  0  0  0  0  0  0  0  0  0  0
    7.9479    1.2345   19.5255 H   0  0  0  0  0  0  0  0  0  0  0  0
    9.4253    1.8528   20.6296 H   0  0  0  0  0  0  0  0  0  0  0  0
   11.2746    2.5219   22.1261 H   0  0  0  0  0  0  0  0  0  0  0  0
   13.7205    3.1149   24.1235 H   0  0  0  0  0  0  0  0  0  0  0  0
   13.1414    2.9724   22.5860 H   0  0  0  0  0  0  0  0  0  0  0  0
  1  2  1  0  0  0  0
  2  3  2  0  0  0  0
  2  4  2  0  0  0  0
  2  5  1  0  0  0  0
  5 17  2  0  0  0  0
  5  6  1  0  0  0  0
  6  7  2  0  0  0  0
  7  8  1  0  0  0  0
  8  9  1  0  0  0  0
  8 16  2  0  0  0  0
  9 10  2  0  0  0  0
 10 11  2  0  0  0  0
 11 12  2  0  0  0  0
 11 13  2  0  0  0  0
 13 14  2  0  0  0  0
 13 15  2  0  0  0  0
 16 17  1  0  0  0  0
 18  6  1  0  0  0  0
 19  7  1  0  0  0  0
 20  9  1  0  0  0  0
 21 10  1  0  0  0  0
 22 16  1  0  0  0  0
 23 17  1  0  0  0  0
 24  1  1  0  0  0  0
 25  1  1  0  0  0  0
M  END
$$$$
