(selection)
 OpenBabel03112014033D

 44 45  0  0  0  0  0  0  0  0999 V2000
    9.5447   -0.6419   25.9053 C   0  0  0  0  0  0  0  0  0  0  0  0
    9.5674   -1.7525   24.8220 C   0  0  0  0  0  0  0  0  0  0  0  0
    8.2552   -1.6083   24.0164 C   0  0  0  0  0  0  0  0  0  0  0  0
   10.7859   -1.4502   23.8845 C   0  0  0  0  0  0  0  0  0  0  0  0
   10.8629   -0.1269   23.1700 N   0  0  0  0  0  0  0  0  0  0  0  0
   11.7503    0.8902   23.2174 C   0  0  0  0  0  0  0  0  0  0  0  0
   12.9996    0.7260   23.6402 N   0  0  0  0  0  0  0  0  0  0  0  0
   11.3798    2.1171   22.7984 N   0  0  0  0  0  0  0  0  0  0  0  0
   12.3561    3.2004   22.5885 C   0  0  0  0  0  0  0  0  0  0  0  0
   12.0792    4.3431   23.5278 C   0  0  0  0  0  0  0  0  0  0  0  0
   10.7917    4.8971   23.6352 C   0  0  0  0  0  0  0  0  0  0  0  0
   10.5418    5.9570   24.5127 C   0  0  0  0  0  0  0  0  0  0  0  0
   11.5732    6.4601   25.3017 C   0  0  0  0  0  0  0  0  0  0  0  0
   12.8496    5.9089   25.2161 C   0  0  0  0  0  0  0  0  0  0  0  0
   13.1041    4.8599   24.3309 C   0  0  0  0  0  0  0  0  0  0  0  0
    9.5810   -3.1876   25.3682 C   0  0  0  0  0  0  0  0  0  0  0  0
    9.0383   -3.5024   26.6236 C   0  0  0  0  0  0  0  0  0  0  0  0
    9.3095   -4.7413   27.1846 C   0  0  0  0  0  0  0  0  0  0  0  0
   10.0677   -5.6793   26.5836 N   0  0  0  0  0  0  0  0  0  0  0  0
   10.4653   -5.4331   25.3223 C   0  0  0  0  0  0  0  0  0  0  0  0
   10.2316   -4.2287   24.6738 C   0  0  0  0  0  0  0  0  0  0  0  0
   11.6842   -1.5325   24.4963 H   0  0  0  0  0  0  0  0  0  0  0  0
   10.8261   -2.2362   23.1304 H   0  0  0  0  0  0  0  0  0  0  0  0
   10.0995    0.0315   22.5279 H   0  0  0  0  0  0  0  0  0  0  0  0
   10.4020    2.2993   22.6229 H   0  0  0  0  0  0  0  0  0  0  0  0
   13.3607    2.8194   22.7724 H   0  0  0  0  0  0  0  0  0  0  0  0
   12.2870    3.5541   21.5598 H   0  0  0  0  0  0  0  0  0  0  0  0
    9.9872    4.5001   23.0339 H   0  0  0  0  0  0  0  0  0  0  0  0
    9.5520    6.3840   24.5783 H   0  0  0  0  0  0  0  0  0  0  0  0
   11.3833    7.2783   25.9805 H   0  0  0  0  0  0  0  0  0  0  0  0
   13.6450    6.2944   25.8367 H   0  0  0  0  0  0  0  0  0  0  0  0
   14.0985    4.4437   24.2647 H   0  0  0  0  0  0  0  0  0  0  0  0
    8.4177   -2.7893   27.1458 H   0  0  0  0  0  0  0  0  0  0  0  0
    8.8909   -4.9663   28.1544 H   0  0  0  0  0  0  0  0  0  0  0  0
   10.9919   -6.2104   24.7885 H   0  0  0  0  0  0  0  0  0  0  0  0
   10.5442   -4.0902   23.6494 H   0  0  0  0  0  0  0  0  0  0  0  0
   13.3123   -0.1827   23.9509 H   0  0  0  0  0  0  0  0  0  0  0  0
   13.6363    1.5100   23.6508 H   0  0  0  0  0  0  0  0  0  0  0  0
    8.2209   -2.3700   23.2374 H   0  0  0  0  0  0  0  0  0  0  0  0
    8.2166   -0.6195   23.5593 H   0  0  0  0  0  0  0  0  0  0  0  0
    7.4031   -1.7333   24.6845 H   0  0  0  0  0  0  0  0  0  0  0  0
   10.4532   -0.6997   26.5047 H   0  0  0  0  0  0  0  0  0  0  0  0
    9.4891    0.3342   25.4234 H   0  0  0  0  0  0  0  0  0  0  0  0
    8.6756   -0.7795   26.5486 H   0  0  0  0  0  0  0  0  0  0  0  0
  1  2  1  0  0  0  0
  2  3  1  0  0  0  0
  2  4  1  0  0  0  0
  2 16  1  0  0  0  0
  4  5  1  0  0  0  0
  5  6  2  0  0  0  0
  6  8  2  0  0  0  0
  6  7  2  0  0  0  0
  8  9  1  0  0  0  0
  9 10  1  0  0  0  0
 10 11  2  0  0  0  0
 10 15  1  0  0  0  0
 11 12  1  0  0  0  0
 12 13  2  0  0  0  0
 13 14  1  0  0  0  0
 14 15  2  0  0  0  0
 16 17  2  0  0  0  0
 16 21  1  0  0  0  0
 17 18  1  0  0  0  0
 18 19  2  0  0  0  0
 19 20  1  0  0  0  0
 20 21  2  0  0  0  0
 22  4  1  0  0  0  0
 23  4  1  0  0  0  0
 24  5  1  0  0  0  0
 25  8  1  0  0  0  0
 26  9  1  0  0  0  0
 27  9  1  0  0  0  0
 28 11  1  0  0  0  0
 29 12  1  0  0  0  0
 30 13  1  0  0  0  0
 31 14  1  0  0  0  0
 32 15  1  0  0  0  0
 33 17  1  0  0  0  0
 34 18  1  0  0  0  0
 35 20  1  0  0  0  0
 36 21  1  0  0  0  0
 37  7  1  0  0  0  0
 38  7  1  0  0  0  0
 39  3  1  0  0  0  0
 40  3  1  0  0  0  0
 41  3  1  0  0  0  0
 42  1  1  0  0  0  0
 43  1  1  0  0  0  0
 44  1  1  0  0  0  0
M  END
$$$$
