hits.sdf
 OpenBabel03112000213D

 16 17  0  0  0  0  0  0  0  0999 V2000
    9.7534   -0.9086   20.9965 O   0  0  0  0  0  0  0  0  0  0  0  0
    9.1676   -1.7039   21.6570 C   0  0  0  0  0  0  0  0  0  0  0  0
    9.7531   -2.3355   22.9139 C   0  0  0  0  0  0  0  0  0  0  0  0
   11.2769   -2.3935   22.8498 C   0  0  0  0  0  0  0  0  0  0  0  0
   11.7275   -3.3606   21.7585 C   0  0  0  0  0  0  0  0  0  0  0  0
   13.2284   -3.6138   21.7957 C   0  0  0  0  0  0  0  0  0  0  0  0
   13.7362   -3.9578   23.1850 C   0  0  0  0  0  0  0  0  0  0  0  0
   13.2963   -2.8765   24.1576 C   0  0  0  0  0  0  0  0  0  0  0  0
   11.7815   -2.8372   24.2143 C   0  0  0  0  0  0  0  0  0  0  0  0
    7.8571   -2.1036   21.2553 N   0  0  0  0  0  0  0  0  0  0  0  0
    7.2840   -1.5011   20.0955 C   0  0  0  0  0  0  0  0  0  0  0  0
    6.0775   -0.8269   20.2514 C   0  0  0  0  0  0  0  0  0  0  0  0
    5.5506   -0.2475   19.0978 C   0  0  0  0  0  0  0  0  0  0  0  0
    6.2496   -0.3632   17.9072 C   0  0  0  0  0  0  0  0  0  0  0  0
    7.4026   -1.0094   17.8363 N   0  0  0  0  0  0  0  0  0  0  0  0
    7.9432   -1.5750   18.8835 C   0  0  0  0  0  0  0  0  0  0  0  0
  1  2  2  0  0  0  0
  2  3  1  0  0  0  0
  2 10  1  0  0  0  0
  4  3  1  0  0  0  0
  4  5  1  0  0  0  0
  4  9  1  0  0  0  0
  5  6  1  0  0  0  0
  6  7  1  0  0  0  0
  7  8  1  0  0  0  0
  9  8  1  0  0  0  0
 10 11  1  0  0  0  0
 11 12  2  0  0  0  0
 11 16  1  0  0  0  0
 12 13  1  0  0  0  0
 13 14  2  0  0  0  0
 14 15  1  0  0  0  0
 16 15  2  0  0  0  0
M  END
$$$$
