(selection)
 OpenBabel03112014033D

 19 20  0  0  0  0  0  0  0  0999 V2000
   12.3547    5.6921   22.7107 O   0  0  0  0  0  0  0  0  0  0  0  0
   12.3798    4.1443   22.7445 P   0  0  0  0  0  0  0  0  0  0  0  0
   10.9570    3.9253   23.2886 O   0  0  0  0  0  0  0  0  0  0  0  0
   12.7272    3.8835   21.2672 O   0  0  0  0  0  0  0  0  0  0  0  0
   12.4095    2.3150   22.7845 C   0  0  0  0  0  0  0  0  0  0  0  0
   13.3681    1.4924   23.3378 C   0  0  0  0  0  0  0  0  0  0  0  0
   13.1204    0.1802   23.1212 N   0  0  0  0  0  0  0  0  0  0  0  0
   11.9613    0.1400   22.4440 C   0  0  0  0  0  0  0  0  0  0  0  0
   11.2201   -0.9660   21.9950 C   0  0  0  0  0  0  0  0  0  0  0  0
   10.0563   -0.7172   21.2625 C   0  0  0  0  0  0  0  0  0  0  0  0
    9.6445    0.5913   20.9819 C   0  0  0  0  0  0  0  0  0  0  0  0
    8.5229    0.7655   20.2677 F   0  0  0  0  0  0  0  0  0  0  0  0
   10.3573    1.7027   21.4221 C   0  0  0  0  0  0  0  0  0  0  0  0
   11.5108    1.4416   22.1664 C   0  0  0  0  0  0  0  0  0  0  0  0
   14.2248    1.8567   23.8854 H   0  0  0  0  0  0  0  0  0  0  0  0
   11.5393   -1.9753   22.2090 H   0  0  0  0  0  0  0  0  0  0  0  0
    9.4648   -1.5479   20.9070 H   0  0  0  0  0  0  0  0  0  0  0  0
   10.0370    2.7101   21.2009 H   0  0  0  0  0  0  0  0  0  0  0  0
   13.6879   -0.6044   23.4084 H   0  0  0  0  0  0  0  0  0  0  0  0
  1  2  1  0  0  0  0
  2  5  1  0  0  0  0
  2  3  1  0  0  0  0
  2  4  1  0  0  0  0
  5  6  2  0  0  0  0
  5 14  1  0  0  0  0
  6  7  1  0  0  0  0
  7  8  1  0  0  0  0
  8  9  2  0  0  0  0
  8 14  1  0  0  0  0
  9 10  1  0  0  0  0
 10 11  2  0  0  0  0
 11 12  1  0  0  0  0
 11 13  1  0  0  0  0
 13 14  2  0  0  0  0
 15  6  1  0  0  0  0
 16  9  1  0  0  0  0
 17 10  1  0  0  0  0
 18 13  1  0  0  0  0
 19  7  1  0  0  0  0
M  END
$$$$
