(selection)
 OpenBabel03112014033D

 29 29  0  0  1  0  0  0  0  0999 V2000
   13.4142    0.7446   22.7601 N   0  3  0  0  0  0  0  0  0  0  0  0
   11.9549    0.9198   22.5306 C   0  0  2  0  0  0  0  0  0  0  0  0
   11.4336   -0.3088   21.7652 C   0  0  0  0  0  0  0  0  0  0  0  0
   11.8319   -1.6248   22.4219 C   0  0  0  0  0  0  0  0  0  0  0  0
   11.0756   -2.2160   23.1969 O   0  0  0  0  0  0  0  0  0  0  0  0
   13.0821   -2.1365   22.1614 N   0  0  0  0  0  0  0  0  0  0  0  0
   13.9688   -1.5155   21.3045 O   0  0  0  0  0  0  0  0  0  0  0  0
   11.6501    2.2258   21.7442 C   0  0  0  0  0  0  0  0  0  0  0  0
   12.3363    3.4804   22.2530 C   0  0  0  0  0  0  0  0  0  0  0  0
   12.9706    4.3489   21.3526 C   0  0  0  0  0  0  0  0  0  0  0  0
   13.5741    5.5250   21.8021 C   0  0  0  0  0  0  0  0  0  0  0  0
   13.5467    5.8495   23.1574 C   0  0  0  0  0  0  0  0  0  0  0  0
   12.9155    4.9975   24.0614 C   0  0  0  0  0  0  0  0  0  0  0  0
   12.3098    3.8212   23.6121 C   0  0  0  0  0  0  0  0  0  0  0  0
   11.4527    0.9685   23.4968 H   0  0  0  0  0  0  0  0  0  0  0  0
   10.3457   -0.2564   21.7218 H   0  0  0  0  0  0  0  0  0  0  0  0
   11.8293   -0.2866   20.7498 H   0  0  0  0  0  0  0  0  0  0  0  0
   13.3609   -2.9961   22.6126 H   0  0  0  0  0  0  0  0  0  0  0  0
   11.9583    2.0726   20.7100 H   0  0  0  0  0  0  0  0  0  0  0  0
   10.5731    2.3929   21.7604 H   0  0  0  0  0  0  0  0  0  0  0  0
   12.9924    4.1054   20.3006 H   0  0  0  0  0  0  0  0  0  0  0  0
   14.0625    6.1837   21.0992 H   0  0  0  0  0  0  0  0  0  0  0  0
   14.0135    6.7589   23.5059 H   0  0  0  0  0  0  0  0  0  0  0  0
   12.8944    5.2469   25.1120 H   0  0  0  0  0  0  0  0  0  0  0  0
   11.8171    3.1692   24.3181 H   0  0  0  0  0  0  0  0  0  0  0  0
   13.8075    0.1848   22.0171 H   0  0  0  0  0  0  0  0  0  0  0  0
   13.5623    0.2810   23.6451 H   0  0  0  0  0  0  0  0  0  0  0  0
   13.8637    1.6489   22.7744 H   0  0  0  0  0  0  0  0  0  0  0  0
   14.8301   -1.9333   21.3774 H   0  0  0  0  0  0  0  0  0  0  0  0
  2  3  1  0  0  0  0
  2  1  1  0  0  0  0
  2  8  1  0  0  0  0
  2 15  1  1  0  0  0
  3  4  1  0  0  0  0
  4  5  2  0  0  0  0
  4  6  1  0  0  0  0
  6  7  1  0  0  0  0
  8  9  1  0  0  0  0
  9 10  1  0  0  0  0
  9 14  2  0  0  0  0
 10 11  2  0  0  0  0
 11 12  1  0  0  0  0
 12 13  2  0  0  0  0
 13 14  1  0  0  0  0
 16  3  1  0  0  0  0
 17  3  1  0  0  0  0
 18  6  1  0  0  0  0
 19  8  1  0  0  0  0
 20  8  1  0  0  0  0
 21 10  1  0  0  0  0
 22 11  1  0  0  0  0
 23 12  1  0  0  0  0
 24 13  1  0  0  0  0
 25 14  1  0  0  0  0
 26  1  1  0  0  0  0
 27  1  1  0  0  0  0
 28  1  1  0  0  0  0
 29  7  1  0  0  0  0
M  CHG  1   1   1
M  END
$$$$
