(selection)
 OpenBabel03112014033D

 36 37  0  0  1  0  0  0  0  0999 V2000
   10.0124    2.0889   21.5854 C   0  0  0  0  0  0  0  0  0  0  0  0
   10.5148    2.4713   23.0027 C   0  0  1  0  0  0  0  0  0  0  0  0
    9.3175    3.1668   23.7647 C   0  0  0  0  0  0  0  0  0  0  0  0
    8.8567    4.4363   23.1969 N   0  3  0  0  0  0  0  0  0  0  0  0
   10.8739    1.1702   23.8035 C   0  0  0  0  0  0  0  0  0  0  0  0
   11.8396    0.1714   23.1981 C   0  0  0  0  0  0  0  0  0  0  0  0
   13.2107    0.4548   23.1244 C   0  0  0  0  0  0  0  0  0  0  0  0
   14.0826   -0.4477   22.5116 C   0  0  0  0  0  0  0  0  0  0  0  0
   13.5735   -1.6223   21.9906 C   0  0  0  0  0  0  0  0  0  0  0  0
   12.2592   -1.8705   22.0596 N   0  0  0  0  0  0  0  0  0  0  0  0
   11.3898   -1.0142   22.6248 C   0  0  0  0  0  0  0  0  0  0  0  0
   11.7143    3.4593   22.9227 C   0  0  0  0  0  0  0  0  0  0  0  0
   12.4406    3.6393   21.7277 C   0  0  0  0  0  0  0  0  0  0  0  0
   13.5779    4.4532   21.6725 C   0  0  0  0  0  0  0  0  0  0  0  0
   14.0001    5.1435   22.8005 C   0  0  0  0  0  0  0  0  0  0  0  0
   13.2813    5.0235   23.9832 C   0  0  0  0  0  0  0  0  0  0  0  0
   12.1578    4.1895   24.0451 C   0  0  0  0  0  0  0  0  0  0  0  0
    9.6367    3.3545   24.7898 H   0  0  0  0  0  0  0  0  0  0  0  0
    8.4759    2.4745   23.7877 H   0  0  0  0  0  0  0  0  0  0  0  0
   11.3008    1.4894   24.7543 H   0  0  0  0  0  0  0  0  0  0  0  0
    9.9433    0.6445   24.0172 H   0  0  0  0  0  0  0  0  0  0  0  0
   13.5937    1.3738   23.5428 H   0  0  0  0  0  0  0  0  0  0  0  0
   15.1386   -0.2311   22.4458 H   0  0  0  0  0  0  0  0  0  0  0  0
   14.2352   -2.3397   21.5281 H   0  0  0  0  0  0  0  0  0  0  0  0
   10.3355   -1.2482   22.6338 H   0  0  0  0  0  0  0  0  0  0  0  0
   12.1106    3.1357   20.8311 H   0  0  0  0  0  0  0  0  0  0  0  0
   14.1294    4.5446   20.7484 H   0  0  0  0  0  0  0  0  0  0  0  0
   14.8799    5.7685   22.7589 H   0  0  0  0  0  0  0  0  0  0  0  0
   13.5901    5.5756   24.8586 H   0  0  0  0  0  0  0  0  0  0  0  0
   11.6172    4.1033   24.9761 H   0  0  0  0  0  0  0  0  0  0  0  0
    9.0937    1.5084   21.6694 H   0  0  0  0  0  0  0  0  0  0  0  0
    9.8180    2.9954   21.0123 H   0  0  0  0  0  0  0  0  0  0  0  0
   10.7726    1.4946   21.0785 H   0  0  0  0  0  0  0  0  0  0  0  0
    8.0944    4.7972   23.7525 H   0  0  0  0  0  0  0  0  0  0  0  0
    9.6173    5.1008   23.1973 H   0  0  0  0  0  0  0  0  0  0  0  0
    8.5411    4.2864   22.2493 H   0  0  0  0  0  0  0  0  0  0  0  0
  2  1  1  6  0  0  0
  2  3  1  0  0  0  0
  2  5  1  0  0  0  0
  2 12  1  0  0  0  0
  3  4  1  0  0  0  0
  5  6  1  0  0  0  0
  6 11  2  0  0  0  0
  6  7  1  0  0  0  0
  7  8  2  0  0  0  0
  8  9  1  0  0  0  0
  9 10  2  0  0  0  0
 10 11  1  0  0  0  0
 12 17  2  0  0  0  0
 12 13  1  0  0  0  0
 13 14  2  0  0  0  0
 14 15  1  0  0  0  0
 15 16  2  0  0  0  0
 16 17  1  0  0  0  0
 18  3  1  0  0  0  0
 19  3  1  0  0  0  0
 20  5  1  0  0  0  0
 21  5  1  0  0  0  0
 22  7  1  0  0  0  0
 23  8  1  0  0  0  0
 24  9  1  0  0  0  0
 25 11  1  0  0  0  0
 26 13  1  0  0  0  0
 27 14  1  0  0  0  0
 28 15  1  0  0  0  0
 29 16  1  0  0  0  0
 30 17  1  0  0  0  0
 31  1  1  0  0  0  0
 32  1  1  0  0  0  0
 33  1  1  0  0  0  0
 34  4  1  0  0  0  0
 35  4  1  0  0  0  0
 36  4  1  0  0  0  0
M  CHG  1   4   1
M  END
$$$$
