(selection)
 OpenBabel03112014033D

 27 27  0  0  1  0  0  0  0  0999 V2000
   13.9506   -1.6153   21.2955 N   0  0  0  0  0  0  0  0  0  0  0  0
   13.0697   -1.0502   22.1477 C   0  0  0  0  0  0  0  0  0  0  0  0
   12.0268   -1.8834   22.3436 N   0  0  0  0  0  0  0  0  0  0  0  0
   13.2855    0.1161   22.6480 N   0  0  0  0  0  0  0  0  0  0  0  0
   12.2757    0.6227   23.5923 C   0  0  0  0  0  0  0  0  0  0  0  0
   11.4624    1.7982   22.9994 C   0  0  1  0  0  0  0  0  0  0  0  0
   10.3248    2.1302   23.7977 O   0  0  0  0  0  0  0  0  0  0  0  0
   12.3044    3.0607   22.8451 C   0  0  0  0  0  0  0  0  0  0  0  0
   12.5247    3.5933   21.5676 C   0  0  0  0  0  0  0  0  0  0  0  0
   13.2990    4.7426   21.3916 C   0  0  0  0  0  0  0  0  0  0  0  0
   13.8581    5.3866   22.4931 C   0  0  0  0  0  0  0  0  0  0  0  0
   13.6311    4.8843   23.7730 C   0  0  0  0  0  0  0  0  0  0  0  0
   12.8537    3.7353   23.9513 C   0  0  0  0  0  0  0  0  0  0  0  0
   14.1044    0.6553   22.4056 H   0  0  0  0  0  0  0  0  0  0  0  0
   11.5908   -0.1875   23.8425 H   0  0  0  0  0  0  0  0  0  0  0  0
   12.7756    0.9588   24.5007 H   0  0  0  0  0  0  0  0  0  0  0  0
   11.1093    1.5026   22.0114 H   0  0  0  0  0  0  0  0  0  0  0  0
   12.0894    3.1080   20.7065 H   0  0  0  0  0  0  0  0  0  0  0  0
   13.4647    5.1331   20.3984 H   0  0  0  0  0  0  0  0  0  0  0  0
   14.4640    6.2701   22.3559 H   0  0  0  0  0  0  0  0  0  0  0  0
   14.0570    5.3841   24.6304 H   0  0  0  0  0  0  0  0  0  0  0  0
   12.6731    3.3619   24.9485 H   0  0  0  0  0  0  0  0  0  0  0  0
   13.7662   -2.5316   20.9128 H   0  0  0  0  0  0  0  0  0  0  0  0
   14.7942   -1.1219   21.0405 H   0  0  0  0  0  0  0  0  0  0  0  0
   11.9999   -2.7777   21.8750 H   0  0  0  0  0  0  0  0  0  0  0  0
   11.2729   -1.6128   22.9589 H   0  0  0  0  0  0  0  0  0  0  0  0
    9.8521    2.8615   23.3935 H   0  0  0  0  0  0  0  0  0  0  0  0
  1  2  2  0  0  0  0
  2  4  2  0  0  0  0
  2  3  2  0  0  0  0
  4  5  1  0  0  0  0
  5  6  1  0  0  0  0
  6 17  1  6  0  0  0
  6  7  1  0  0  0  0
  6  8  1  0  0  0  0
  8  9  2  0  0  0  0
  8 13  1  0  0  0  0
  9 10  1  0  0  0  0
 10 11  2  0  0  0  0
 11 12  1  0  0  0  0
 12 13  2  0  0  0  0
 14  4  1  0  0  0  0
 15  5  1  0  0  0  0
 16  5  1  0  0  0  0
 18  9  1  0  0  0  0
 19 10  1  0  0  0  0
 20 11  1  0  0  0  0
 21 12  1  0  0  0  0
 22 13  1  0  0  0  0
 23  1  1  0  0  0  0
 24  1  1  0  0  0  0
 25  3  1  0  0  0  0
 26  3  1  0  0  0  0
 27  7  1  0  0  0  0
M  END
$$$$
