(selection)
 OpenBabel03112014033D

 26 26  0  0  0  0  0  0  0  0999 V2000
   12.1141    3.9355   22.7685 C   0  0  0  0  0  0  0  0  0  0  0  0
   11.2258    2.8616   22.4572 O   0  0  0  0  0  0  0  0  0  0  0  0
   11.8166    1.6426   22.4380 C   0  0  0  0  0  0  0  0  0  0  0  0
   12.9663    1.3971   22.7687 O   0  0  0  0  0  0  0  0  0  0  0  0
   10.8613    0.6076   21.9577 C   0  0  0  0  0  0  0  0  0  0  0  0
   11.1804   -0.7399   22.1703 C   0  0  0  0  0  0  0  0  0  0  0  0
   10.3157   -1.7463   21.7315 C   0  0  0  0  0  0  0  0  0  0  0  0
    9.1254   -1.4102   21.0828 C   0  0  0  0  0  0  0  0  0  0  0  0
    8.8049   -0.0672   20.8682 C   0  0  0  0  0  0  0  0  0  0  0  0
    7.6071    0.3299   20.1998 N   0  0  0  0  0  0  0  0  0  0  0  0
    6.3374    0.2763   20.9304 C   0  0  0  0  0  0  0  0  0  0  0  0
    7.5522    0.1572   18.5132 S   0  0  0  0  0  0  0  0  0  0  0  0
    7.1286    1.4184   17.9381 O   0  0  0  0  0  0  0  0  0  0  0  0
    8.7469   -0.5184   18.0621 O   0  0  0  0  0  0  0  0  0  0  0  0
    6.0253   -1.1378   18.0767 Cl  0  0  0  0  0  0  0  0  0  0  0  0
    9.6704    0.9399   21.3012 C   0  0  0  0  0  0  0  0  0  0  0  0
   12.0984   -1.0020   22.6753 H   0  0  0  0  0  0  0  0  0  0  0  0
   10.5679   -2.7838   21.8940 H   0  0  0  0  0  0  0  0  0  0  0  0
    8.4539   -2.1869   20.7477 H   0  0  0  0  0  0  0  0  0  0  0  0
    9.4205    1.9764   21.1293 H   0  0  0  0  0  0  0  0  0  0  0  0
    6.4548    0.7603   21.9000 H   0  0  0  0  0  0  0  0  0  0  0  0
    5.5669    0.7927   20.3578 H   0  0  0  0  0  0  0  0  0  0  0  0
    6.0458   -0.7638   21.0764 H   0  0  0  0  0  0  0  0  0  0  0  0
   11.5750    4.8813   22.7132 H   0  0  0  0  0  0  0  0  0  0  0  0
   12.5080    3.8005   23.7758 H   0  0  0  0  0  0  0  0  0  0  0  0
   12.9377    3.9444   22.0545 H   0  0  0  0  0  0  0  0  0  0  0  0
  1  2  1  0  0  0  0
  2  3  1  0  0  0  0
  3  4  2  0  0  0  0
  3  5  1  0  0  0  0
  5  6  2  0  0  0  0
  5 16  1  0  0  0  0
  6  7  1  0  0  0  0
  7  8  2  0  0  0  0
  8  9  1  0  0  0  0
  9 10  1  0  0  0  0
  9 16  2  0  0  0  0
 10 11  1  0  0  0  0
 10 12  1  0  0  0  0
 12 13  2  0  0  0  0
 12 14  2  0  0  0  0
 12 15  1  0  0  0  0
 17  6  1  0  0  0  0
 18  7  1  0  0  0  0
 19  8  1  0  0  0  0
 20 16  1  0  0  0  0
 21 11  1  0  0  0  0
 22 11  1  0  0  0  0
 23 11  1  0  0  0  0
 24  1  1  0  0  0  0
 25  1  1  0  0  0  0
 26  1  1  0  0  0  0
M  END
$$$$
