(selection)
 OpenBabel03112014033D

 39 39  0  0  0  0  0  0  0  0999 V2000
   12.6031    6.0357   24.3039 C   0  0  0  0  0  0  0  0  0  0  0  0
   12.4634    4.6740   23.8214 N   0  0  0  0  0  0  0  0  0  0  0  0
   12.6535    4.4279   22.5789 C   0  0  0  0  0  0  0  0  0  0  0  0
   13.0128    5.2996   21.6031 N   0  0  0  0  0  0  0  0  0  0  0  0
   12.5276    3.1893   22.0320 N   0  0  0  0  0  0  0  0  0  0  0  0
   11.9461    2.0773   22.7616 C   0  0  0  0  0  0  0  0  0  0  0  0
   11.3010    1.0977   21.7862 C   0  0  0  0  0  0  0  0  0  0  0  0
   10.6226   -0.0743   22.5012 C   0  0  0  0  0  0  0  0  0  0  0  0
   10.2954   -1.2508   21.5785 C   0  0  0  0  0  0  0  0  0  0  0  0
    9.4144   -0.8905   20.5171 O   0  0  0  0  0  0  0  0  0  0  0  0
    8.1012   -0.5624   20.9676 C   0  0  0  0  0  0  0  0  0  0  0  0
    7.2220   -0.2814   19.7790 C   0  0  0  0  0  0  0  0  0  0  0  0
    7.4711    0.8251   18.9552 C   0  0  0  0  0  0  0  0  0  0  0  0
    6.6733    1.0695   17.8369 C   0  0  0  0  0  0  0  0  0  0  0  0
    5.6171    0.2127   17.5341 C   0  0  0  0  0  0  0  0  0  0  0  0
    5.3548   -0.8858   18.3507 C   0  0  0  0  0  0  0  0  0  0  0  0
    6.1528   -1.1318   19.4691 C   0  0  0  0  0  0  0  0  0  0  0  0
   12.2191    3.9290   24.4581 H   0  0  0  0  0  0  0  0  0  0  0  0
   12.8494    3.0380   21.0867 H   0  0  0  0  0  0  0  0  0  0  0  0
   11.1892    2.4531   23.4500 H   0  0  0  0  0  0  0  0  0  0  0  0
   12.7266    1.5662   23.3252 H   0  0  0  0  0  0  0  0  0  0  0  0
   10.5528    1.6300   21.1988 H   0  0  0  0  0  0  0  0  0  0  0  0
   12.0672    0.7085   21.1157 H   0  0  0  0  0  0  0  0  0  0  0  0
   11.2881   -0.4290   23.2883 H   0  0  0  0  0  0  0  0  0  0  0  0
    9.6985    0.2809   22.9573 H   0  0  0  0  0  0  0  0  0  0  0  0
    9.8256   -2.0369   22.1696 H   0  0  0  0  0  0  0  0  0  0  0  0
   11.2226   -1.6348   21.1532 H   0  0  0  0  0  0  0  0  0  0  0  0
    8.1453    0.3211   21.6044 H   0  0  0  0  0  0  0  0  0  0  0  0
    7.6912   -1.3988   21.5337 H   0  0  0  0  0  0  0  0  0  0  0  0
    8.2868    1.4936   19.1879 H   0  0  0  0  0  0  0  0  0  0  0  0
    6.8744    1.9227   17.2061 H   0  0  0  0  0  0  0  0  0  0  0  0
    5.0017    0.3998   16.6666 H   0  0  0  0  0  0  0  0  0  0  0  0
    4.5334   -1.5472   18.1179 H   0  0  0  0  0  0  0  0  0  0  0  0
    5.9446   -1.9834   20.0998 H   0  0  0  0  0  0  0  0  0  0  0  0
   13.1579    6.2742   21.8249 H   0  0  0  0  0  0  0  0  0  0  0  0
   13.1352    4.9738   20.6549 H   0  0  0  0  0  0  0  0  0  0  0  0
   12.3956    6.0658   25.3735 H   0  0  0  0  0  0  0  0  0  0  0  0
   13.6200    6.3830   24.1214 H   0  0  0  0  0  0  0  0  0  0  0  0
   11.8990    6.6812   23.7789 H   0  0  0  0  0  0  0  0  0  0  0  0
  1  2  1  0  0  0  0
  2  3  2  0  0  0  0
  3  5  2  0  0  0  0
  3  4  2  0  0  0  0
  5  6  1  0  0  0  0
  6  7  1  0  0  0  0
  7  8  1  0  0  0  0
  8  9  1  0  0  0  0
  9 10  1  0  0  0  0
 10 11  1  0  0  0  0
 11 12  1  0  0  0  0
 12 13  2  0  0  0  0
 12 17  1  0  0  0  0
 13 14  1  0  0  0  0
 14 15  2  0  0  0  0
 15 16  1  0  0  0  0
 16 17  2  0  0  0  0
 18  2  1  0  0  0  0
 19  5  1  0  0  0  0
 20  6  1  0  0  0  0
 21  6  1  0  0  0  0
 22  7  1  0  0  0  0
 23  7  1  0  0  0  0
 24  8  1  0  0  0  0
 25  8  1  0  0  0  0
 26  9  1  0  0  0  0
 27  9  1  0  0  0  0
 28 11  1  0  0  0  0
 29 11  1  0  0  0  0
 30 13  1  0  0  0  0
 31 14  1  0  0  0  0
 32 15  1  0  0  0  0
 33 16  1  0  0  0  0
 34 17  1  0  0  0  0
 35  4  1  0  0  0  0
 36  4  1  0  0  0  0
 37  1  1  0  0  0  0
 38  1  1  0  0  0  0
 39  1  1  0  0  0  0
M  END
$$$$
