(selection)
 OpenBabel03112014033D

 35 36  0  0  1  0  0  0  0  0999 V2000
   11.5529    0.5697   22.3500 C   0  0  0  0  0  0  0  0  0  0  0  0
   10.6311    1.6303   21.7397 C   0  0  1  0  0  0  0  0  0  0  0  0
    9.2463    0.9816   21.4918 C   0  0  0  0  0  0  0  0  0  0  0  0
    9.2347   -0.0960   20.4004 C   0  0  0  0  0  0  0  0  0  0  0  0
    7.8434   -0.6181   20.1369 C   0  0  0  0  0  0  0  0  0  0  0  0
    7.1946   -0.3743   18.9222 C   0  0  0  0  0  0  0  0  0  0  0  0
    5.9171   -0.8817   18.7035 C   0  0  0  0  0  0  0  0  0  0  0  0
    5.3196   -1.6131   19.7160 C   0  0  0  0  0  0  0  0  0  0  0  0
    5.9039   -1.8565   20.9088 N   0  0  0  0  0  0  0  0  0  0  0  0
    7.1462   -1.3530   21.0916 C   0  0  0  0  0  0  0  0  0  0  0  0
   10.5295    2.8325   22.6817 C   0  0  0  0  0  0  0  0  0  0  0  0
    9.5464    3.0031   23.4030 O   0  0  0  0  0  0  0  0  0  0  0  0
   11.6299    3.8478   22.7291 C   0  0  0  0  0  0  0  0  0  0  0  0
   12.6665    3.7337   21.7901 C   0  0  0  0  0  0  0  0  0  0  0  0
   13.7000    4.6722   21.7532 C   0  0  0  0  0  0  0  0  0  0  0  0
   13.6971    5.7467   22.6390 C   0  0  0  0  0  0  0  0  0  0  0  0
   12.6724    5.8700   23.5750 C   0  0  0  0  0  0  0  0  0  0  0  0
   11.6498    4.9166   23.6334 C   0  0  0  0  0  0  0  0  0  0  0  0
   11.0468    1.9582   20.7869 H   0  0  0  0  0  0  0  0  0  0  0  0
    8.9124    0.5256   22.4238 H   0  0  0  0  0  0  0  0  0  0  0  0
    8.5401    1.7644   21.2151 H   0  0  0  0  0  0  0  0  0  0  0  0
    9.6303    0.3319   19.4792 H   0  0  0  0  0  0  0  0  0  0  0  0
    9.8724   -0.9237   20.7108 H   0  0  0  0  0  0  0  0  0  0  0  0
    7.6842    0.2069   18.1548 H   0  0  0  0  0  0  0  0  0  0  0  0
    5.4052   -0.7094   17.7683 H   0  0  0  0  0  0  0  0  0  0  0  0
    4.3308   -2.0112   19.5420 H   0  0  0  0  0  0  0  0  0  0  0  0
    7.6288   -1.5331   22.0408 H   0  0  0  0  0  0  0  0  0  0  0  0
   12.6650    2.9121   21.0891 H   0  0  0  0  0  0  0  0  0  0  0  0
   14.5017    4.5646   21.0375 H   0  0  0  0  0  0  0  0  0  0  0  0
   14.4869    6.4824   22.6006 H   0  0  0  0  0  0  0  0  0  0  0  0
   12.6673    6.7058   24.2590 H   0  0  0  0  0  0  0  0  0  0  0  0
   10.8732    5.0055   24.3786 H   0  0  0  0  0  0  0  0  0  0  0  0
   12.5356    1.0040   22.5337 H   0  0  0  0  0  0  0  0  0  0  0  0
   11.1294    0.2187   23.2910 H   0  0  0  0  0  0  0  0  0  0  0  0
   11.6493   -0.2685   21.6599 H   0  0  0  0  0  0  0  0  0  0  0  0
  2 19  1  6  0  0  0
  2  3  1  0  0  0  0
  2 11  1  0  0  0  0
  2  1  1  0  0  0  0
  3  4  1  0  0  0  0
  4  5  1  0  0  0  0
  5  6  2  0  0  0  0
  5 10  1  0  0  0  0
  6  7  1  0  0  0  0
  7  8  2  0  0  0  0
  8  9  1  0  0  0  0
  9 10  2  0  0  0  0
 11 13  1  0  0  0  0
 11 12  2  0  0  0  0
 13 14  2  0  0  0  0
 13 18  1  0  0  0  0
 14 15  1  0  0  0  0
 15 16  2  0  0  0  0
 16 17  1  0  0  0  0
 17 18  2  0  0  0  0
 20  3  1  0  0  0  0
 21  3  1  0  0  0  0
 22  4  1  0  0  0  0
 23  4  1  0  0  0  0
 24  6  1  0  0  0  0
 25  7  1  0  0  0  0
 26  8  1  0  0  0  0
 27 10  1  0  0  0  0
 28 14  1  0  0  0  0
 29 15  1  0  0  0  0
 30 16  1  0  0  0  0
 31 17  1  0  0  0  0
 32 18  1  0  0  0  0
 33  1  1  0  0  0  0
 34  1  1  0  0  0  0
 35  1  1  0  0  0  0
M  END
$$$$
