(selection)
 OpenBabel03112014033D

 34 34  0  0  1  0  0  0  0  0999 V2000
    4.6078    0.4363   18.7266 N   0  0  0  0  0  0  0  0  0  0  0  0
    6.0232    0.1887   18.0425 S   0  0  0  0  0  0  0  0  0  0  0  0
    6.2490   -1.1883   17.6267 O   0  0  0  0  0  0  0  0  0  0  0  0
    6.3786    1.1943   17.0442 O   0  0  0  0  0  0  0  0  0  0  0  0
    7.2553    0.4141   19.3490 C   0  0  0  0  0  0  0  0  0  0  0  0
    7.0375    1.3933   20.3178 C   0  0  0  0  0  0  0  0  0  0  0  0
    7.9903    1.5957   21.3227 C   0  0  0  0  0  0  0  0  0  0  0  0
    9.1496    0.7952   21.4042 C   0  0  0  0  0  0  0  0  0  0  0  0
   10.1578    1.0285   22.5433 C   0  0  1  0  0  0  0  0  0  0  0  0
   10.2573   -0.2643   23.4144 C   0  0  0  0  0  0  0  0  0  0  0  0
   10.8297   -1.5152   22.7330 C   0  0  0  0  0  0  0  0  0  0  0  0
   10.9080   -2.6716   23.6234 N   0  3  0  0  0  0  0  0  0  0  0  0
   11.5680    1.4518   22.0862 C   0  0  0  0  0  0  0  0  0  0  0  0
   12.6398    1.7022   23.1458 C   0  0  0  0  0  0  0  0  0  0  0  0
   12.5804    2.8087   23.7481 O   0  0  0  0  0  0  0  0  0  0  0  0
   13.4032    0.7139   23.3509 O   0  0  0  0  0  0  0  0  0  0  0  0
    9.3385   -0.1778   20.4063 C   0  0  0  0  0  0  0  0  0  0  0  0
    8.4050   -0.3664   19.3820 C   0  0  0  0  0  0  0  0  0  0  0  0
    6.1389    1.9919   20.2927 H   0  0  0  0  0  0  0  0  0  0  0  0
    7.8354    2.3793   22.0495 H   0  0  0  0  0  0  0  0  0  0  0  0
    9.7632    1.8235   23.1760 H   0  0  0  0  0  0  0  0  0  0  0  0
   10.8911   -0.0365   24.2714 H   0  0  0  0  0  0  0  0  0  0  0  0
    9.2599   -0.5039   23.7830 H   0  0  0  0  0  0  0  0  0  0  0  0
   10.1912   -1.7718   21.8877 H   0  0  0  0  0  0  0  0  0  0  0  0
   11.8294   -1.2879   22.3627 H   0  0  0  0  0  0  0  0  0  0  0  0
   11.4570    2.3755   21.5182 H   0  0  0  0  0  0  0  0  0  0  0  0
   11.9426    0.6857   21.4073 H   0  0  0  0  0  0  0  0  0  0  0  0
   10.2252   -0.7938   20.4316 H   0  0  0  0  0  0  0  0  0  0  0  0
    8.5764   -1.1138   18.6215 H   0  0  0  0  0  0  0  0  0  0  0  0
   11.2905   -3.4593   23.1201 H   0  0  0  0  0  0  0  0  0  0  0  0
    9.9831   -2.9025   23.9571 H   0  0  0  0  0  0  0  0  0  0  0  0
   11.5042   -2.4522   24.4086 H   0  0  0  0  0  0  0  0  0  0  0  0
    3.8764    0.0866   18.1242 H   0  0  0  0  0  0  0  0  0  0  0  0
    4.4753    1.4262   18.8768 H   0  0  0  0  0  0  0  0  0  0  0  0
  1  2  1  0  0  0  0
  2  3  2  0  0  0  0
  2  4  2  0  0  0  0
  2  5  1  0  0  0  0
  5  6  2  0  0  0  0
  5 18  1  0  0  0  0
  6  7  1  0  0  0  0
  7  8  2  0  0  0  0
  8  9  1  0  0  0  0
  8 17  1  0  0  0  0
  9 10  1  0  0  0  0
  9 13  1  0  0  0  0
  9 21  1  1  0  0  0
 10 11  1  0  0  0  0
 11 12  1  0  0  0  0
 13 14  1  0  0  0  0
 14 15  2  0  0  0  0
 14 16  2  0  0  0  0
 17 18  2  0  0  0  0
 19  6  1  0  0  0  0
 20  7  1  0  0  0  0
 22 10  1  0  0  0  0
 23 10  1  0  0  0  0
 24 11  1  0  0  0  0
 25 11  1  0  0  0  0
 26 13  1  0  0  0  0
 27 13  1  0  0  0  0
 28 17  1  0  0  0  0
 29 18  1  0  0  0  0
 30 12  1  0  0  0  0
 31 12  1  0  0  0  0
 32 12  1  0  0  0  0
 33  1  1  0  0  0  0
 34  1  1  0  0  0  0
M  CHG  1  12   1
M  END
$$$$
