(selection)
 OpenBabel03112014033D

 30 31  0  0  0  0  0  0  0  0999 V2000
    8.6513    0.9444   27.4452 O   0  0  0  0  0  0  0  0  0  0  0  0
    8.8992    0.4570   26.3046 C   0  0  0  0  0  0  0  0  0  0  0  0
    8.9329    1.0279   25.1837 O   0  0  0  0  0  0  0  0  0  0  0  0
    9.1733   -1.0489   26.3317 C   0  0  0  0  0  0  0  0  0  0  0  0
    9.4700   -1.8895   25.3213 C   0  0  0  0  0  0  0  0  0  0  0  0
    9.5939   -1.5520   23.8489 C   0  0  0  0  0  0  0  0  0  0  0  0
   10.9868   -1.1093   23.4413 C   0  0  0  0  0  0  0  0  0  0  0  0
   11.6161   -0.0260   24.0701 C   0  0  0  0  0  0  0  0  0  0  0  0
   12.8887    0.3859   23.6660 C   0  0  0  0  0  0  0  0  0  0  0  0
   13.5453   -0.2807   22.6321 C   0  0  0  0  0  0  0  0  0  0  0  0
   12.9408   -1.3748   22.0180 C   0  0  0  0  0  0  0  0  0  0  0  0
   11.6747   -1.7923   22.4279 C   0  0  0  0  0  0  0  0  0  0  0  0
    9.6106   -3.3135   25.6735 C   0  0  0  0  0  0  0  0  0  0  0  0
   10.2035   -4.1924   24.7674 C   0  0  0  0  0  0  0  0  0  0  0  0
   10.2774   -5.5337   25.0998 C   0  0  0  0  0  0  0  0  0  0  0  0
    9.8089   -6.0519   26.2567 N   0  0  0  0  0  0  0  0  0  0  0  0
    9.2274   -5.1779   27.1106 C   0  0  0  0  0  0  0  0  0  0  0  0
    9.1064   -3.8181   26.8706 C   0  0  0  0  0  0  0  0  0  0  0  0
    9.1209   -1.5068   27.3084 H   0  0  0  0  0  0  0  0  0  0  0  0
    9.3306   -2.4369   23.2695 H   0  0  0  0  0  0  0  0  0  0  0  0
    8.8892   -0.7550   23.6114 H   0  0  0  0  0  0  0  0  0  0  0  0
   11.1138    0.4939   24.8725 H   0  0  0  0  0  0  0  0  0  0  0  0
   13.3649    1.2225   24.1556 H   0  0  0  0  0  0  0  0  0  0  0  0
   14.5208    0.0508   22.3082 H   0  0  0  0  0  0  0  0  0  0  0  0
   13.4522   -1.8997   21.2247 H   0  0  0  0  0  0  0  0  0  0  0  0
   11.2186   -2.6518   21.9593 H   0  0  0  0  0  0  0  0  0  0  0  0
   10.5962   -3.8342   23.8273 H   0  0  0  0  0  0  0  0  0  0  0  0
   10.7373   -6.2072   24.3918 H   0  0  0  0  0  0  0  0  0  0  0  0
    8.8323   -5.5646   28.0384 H   0  0  0  0  0  0  0  0  0  0  0  0
    8.6342   -3.1674   27.5917 H   0  0  0  0  0  0  0  0  0  0  0  0
  1  2  2  0  0  0  0
  2  3  2  0  0  0  0
  2  4  2  0  0  0  0
  4  5  2  0  0  0  0
  5  6  1  0  0  0  0
  5 13  1  0  0  0  0
  6  7  1  0  0  0  0
  7  8  2  0  0  0  0
  7 12  1  0  0  0  0
  8  9  1  0  0  0  0
  9 10  2  0  0  0  0
 10 11  1  0  0  0  0
 11 12  2  0  0  0  0
 13 14  2  0  0  0  0
 13 18  1  0  0  0  0
 14 15  1  0  0  0  0
 15 16  2  0  0  0  0
 16 17  1  0  0  0  0
 17 18  2  0  0  0  0
 19  4  1  0  0  0  0
 20  6  1  0  0  0  0
 21  6  1  0  0  0  0
 22  8  1  0  0  0  0
 23  9  1  0  0  0  0
 24 10  1  0  0  0  0
 25 11  1  0  0  0  0
 26 12  1  0  0  0  0
 27 14  1  0  0  0  0
 28 15  1  0  0  0  0
 29 17  1  0  0  0  0
 30 18  1  0  0  0  0
M  END
$$$$
