(selection)
 OpenBabel03112014033D

 46 47  0  0  1  0  0  0  0  0999 V2000
   13.3009   -1.5529   21.9734 C   0  0  0  0  0  0  0  0  0  0  0  0
   12.0487   -1.0824   22.7098 C   0  0  1  0  0  0  0  0  0  0  0  0
   11.4658    0.1623   22.0107 C   0  0  0  0  0  0  0  0  0  0  0  0
   12.1557    1.3650   22.3553 O   0  0  0  0  0  0  0  0  0  0  0  0
   11.5652    2.5275   21.7771 C   0  0  0  0  0  0  0  0  0  0  0  0
   12.1953    3.8078   22.2585 C   0  0  0  0  0  0  0  0  0  0  0  0
   13.2740    4.4188   21.6092 C   0  0  0  0  0  0  0  0  0  0  0  0
   13.8099    5.6104   22.1010 C   0  0  0  0  0  0  0  0  0  0  0  0
   13.2704    6.2030   23.2424 C   0  0  0  0  0  0  0  0  0  0  0  0
   12.1931    5.6114   23.8924 C   0  0  0  0  0  0  0  0  0  0  0  0
   11.6582    4.4152   23.4049 C   0  0  0  0  0  0  0  0  0  0  0  0
   10.9708   -2.1837   22.8301 C   0  0  0  0  0  0  0  0  0  0  0  0
    9.6801   -1.7694   23.5681 C   0  0  1  0  0  0  0  0  0  0  0  0
    8.9331   -0.7551   22.8169 N   0  3  0  0  0  0  0  0  0  0  0  0
    8.7948   -3.0152   23.8122 C   0  0  0  0  0  0  0  0  0  0  0  0
    9.2670   -3.8860   24.9548 C   0  0  0  0  0  0  0  0  0  0  0  0
    8.7695   -3.6926   26.2468 C   0  0  0  0  0  0  0  0  0  0  0  0
    9.2374   -4.5053   27.2674 C   0  0  0  0  0  0  0  0  0  0  0  0
   10.1524   -5.4835   27.0948 N   0  0  0  0  0  0  0  0  0  0  0  0
   10.6244   -5.6485   25.8414 C   0  0  0  0  0  0  0  0  0  0  0  0
   10.2161   -4.8914   24.7539 C   0  0  0  0  0  0  0  0  0  0  0  0
   12.3435   -0.7919   23.7182 H   0  0  0  0  0  0  0  0  0  0  0  0
   10.4199    0.2660   22.2995 H   0  0  0  0  0  0  0  0  0  0  0  0
   11.5217    0.0199   20.9315 H   0  0  0  0  0  0  0  0  0  0  0  0
   11.6761    2.4715   20.6942 H   0  0  0  0  0  0  0  0  0  0  0  0
   10.5033    2.5429   22.0226 H   0  0  0  0  0  0  0  0  0  0  0  0
   13.6940    3.9662   20.7231 H   0  0  0  0  0  0  0  0  0  0  0  0
   14.6443    6.0745   21.5963 H   0  0  0  0  0  0  0  0  0  0  0  0
   13.6901    7.1229   23.6220 H   0  0  0  0  0  0  0  0  0  0  0  0
   11.7705    6.0747   24.7717 H   0  0  0  0  0  0  0  0  0  0  0  0
   10.8248    3.9544   23.9144 H   0  0  0  0  0  0  0  0  0  0  0  0
   10.6963   -2.4967   21.8228 H   0  0  0  0  0  0  0  0  0  0  0  0
   11.4063   -3.0372   23.3497 H   0  0  0  0  0  0  0  0  0  0  0  0
    9.9561   -1.3482   24.5348 H   0  0  0  0  0  0  0  0  0  0  0  0
    7.7818   -2.6787   24.0328 H   0  0  0  0  0  0  0  0  0  0  0  0
    8.7742   -3.6137   22.9015 H   0  0  0  0  0  0  0  0  0  0  0  0
    8.0356   -2.9256   26.4456 H   0  0  0  0  0  0  0  0  0  0  0  0
    8.8463   -4.3466   28.2615 H   0  0  0  0  0  0  0  0  0  0  0  0
   11.3650   -6.4168   25.6753 H   0  0  0  0  0  0  0  0  0  0  0  0
   10.6237   -5.0753   23.7708 H   0  0  0  0  0  0  0  0  0  0  0  0
    7.9464   -0.9679   22.8525 H   0  0  0  0  0  0  0  0  0  0  0  0
    9.0961    0.1541   23.2255 H   0  0  0  0  0  0  0  0  0  0  0  0
    9.2425   -0.7525   21.8555 H   0  0  0  0  0  0  0  0  0  0  0  0
   13.7076   -2.4325   22.4725 H   0  0  0  0  0  0  0  0  0  0  0  0
   14.0452   -0.7566   21.9773 H   0  0  0  0  0  0  0  0  0  0  0  0
   13.0441   -1.8051   20.9445 H   0  0  0  0  0  0  0  0  0  0  0  0
  2  3  1  0  0  0  0
  2 22  1  1  0  0  0
  2 12  1  0  0  0  0
  2  1  1  0  0  0  0
  3  4  1  0  0  0  0
  4  5  1  0  0  0  0
  5  6  1  0  0  0  0
  6  7  2  0  0  0  0
  6 11  1  0  0  0  0
  7  8  1  0  0  0  0
  8  9  2  0  0  0  0
  9 10  1  0  0  0  0
 10 11  2  0  0  0  0
 12 13  1  0  0  0  0
 13 34  1  1  0  0  0
 13 14  1  0  0  0  0
 13 15  1  0  0  0  0
 15 16  1  0  0  0  0
 16 17  2  0  0  0  0
 16 21  1  0  0  0  0
 17 18  1  0  0  0  0
 18 19  2  0  0  0  0
 19 20  1  0  0  0  0
 20 21  2  0  0  0  0
 23  3  1  0  0  0  0
 24  3  1  0  0  0  0
 25  5  1  0  0  0  0
 26  5  1  0  0  0  0
 27  7  1  0  0  0  0
 28  8  1  0  0  0  0
 29  9  1  0  0  0  0
 30 10  1  0  0  0  0
 31 11  1  0  0  0  0
 32 12  1  0  0  0  0
 33 12  1  0  0  0  0
 35 15  1  0  0  0  0
 36 15  1  0  0  0  0
 37 17  1  0  0  0  0
 38 18  1  0  0  0  0
 39 20  1  0  0  0  0
 40 21  1  0  0  0  0
 41 14  1  0  0  0  0
 42 14  1  0  0  0  0
 43 14  1  0  0  0  0
 44  1  1  0  0  0  0
 45  1  1  0  0  0  0
 46  1  1  0  0  0  0
M  CHG  1  14   1
M  END
$$$$
