(selection)
 OpenBabel03112014033D

 39 39  0  0  1  0  0  0  0  0999 V2000
   10.3657   -0.4225   24.3411 C   0  0  0  0  0  0  0  0  0  0  0  0
   10.0519   -1.6099   23.4051 C   0  0  0  0  0  0  0  0  0  0  0  0
   10.2635   -2.9090   24.2077 C   0  0  0  0  0  0  0  0  0  0  0  0
    8.5422   -1.4980   23.0030 C   0  0  0  0  0  0  0  0  0  0  0  0
    7.9452   -2.8785   21.9616 S   0  0  0  0  0  0  0  0  0  0  0  0
    6.3130   -2.2188   21.5003 C   0  0  0  0  0  0  0  0  0  0  0  0
    6.4057   -1.3588   20.2649 C   0  0  0  0  0  0  0  0  0  0  0  0
    7.3158   -0.2914   20.2023 C   0  0  0  0  0  0  0  0  0  0  0  0
    7.3855    0.5163   19.0649 C   0  0  0  0  0  0  0  0  0  0  0  0
    6.5472    0.2686   17.9814 C   0  0  0  0  0  0  0  0  0  0  0  0
    5.6335   -0.7818   18.0346 C   0  0  0  0  0  0  0  0  0  0  0  0
    5.5587   -1.5893   19.1714 C   0  0  0  0  0  0  0  0  0  0  0  0
   10.9489   -1.5222   22.1239 C   0  0  0  0  0  0  0  0  0  0  0  0
   12.4678   -1.3861   22.2783 C   0  0  1  0  0  0  0  0  0  0  0  0
   13.1877   -1.7723   21.0031 N   0  3  0  0  0  0  0  0  0  0  0  0
   12.9460    0.0595   22.6438 C   0  0  0  0  0  0  0  0  0  0  0  0
   12.3378    1.0317   22.1532 O   0  0  0  0  0  0  0  0  0  0  0  0
   13.9772   -0.0262   23.3986 O   0  0  0  0  0  0  0  0  0  0  0  0
    8.4024   -0.5679   22.4521 H   0  0  0  0  0  0  0  0  0  0  0  0
    7.9406   -1.4599   23.9112 H   0  0  0  0  0  0  0  0  0  0  0  0
    5.6351   -3.0498   21.3056 H   0  0  0  0  0  0  0  0  0  0  0  0
    5.9215   -1.6221   22.3241 H   0  0  0  0  0  0  0  0  0  0  0  0
    7.9673   -0.0933   21.0406 H   0  0  0  0  0  0  0  0  0  0  0  0
    8.0903    1.3337   19.0260 H   0  0  0  0  0  0  0  0  0  0  0  0
    6.6051    0.8903   17.1002 H   0  0  0  0  0  0  0  0  0  0  0  0
    4.9816   -0.9720   17.1948 H   0  0  0  0  0  0  0  0  0  0  0  0
    4.8432   -2.3974   19.2087 H   0  0  0  0  0  0  0  0  0  0  0  0
   10.7682   -2.4292   21.5469 H   0  0  0  0  0  0  0  0  0  0  0  0
   10.5988   -0.6770   21.5313 H   0  0  0  0  0  0  0  0  0  0  0  0
   12.7914   -2.0620   23.0699 H   0  0  0  0  0  0  0  0  0  0  0  0
   10.0491   -3.7683   23.5723 H   0  0  0  0  0  0  0  0  0  0  0  0
    9.5940   -2.9175   25.0678 H   0  0  0  0  0  0  0  0  0  0  0  0
   11.2968   -2.9598   24.5510 H   0  0  0  0  0  0  0  0  0  0  0  0
    9.5818   -0.3352   25.0934 H   0  0  0  0  0  0  0  0  0  0  0  0
   10.4131    0.4970   23.7577 H   0  0  0  0  0  0  0  0  0  0  0  0
   11.3239   -0.5907   24.8327 H   0  0  0  0  0  0  0  0  0  0  0  0
   12.9090   -2.7031   20.7272 H   0  0  0  0  0  0  0  0  0  0  0  0
   14.1851   -1.7526   21.1607 H   0  0  0  0  0  0  0  0  0  0  0  0
   12.9496   -1.1187   20.2709 H   0  0  0  0  0  0  0  0  0  0  0  0
  1  2  1  0  0  0  0
  2  3  1  0  0  0  0
  2  4  1  0  0  0  0
  2 13  1  0  0  0  0
  4  5  1  0  0  0  0
  5  6  1  0  0  0  0
  6  7  1  0  0  0  0
  7  8  2  0  0  0  0
  7 12  1  0  0  0  0
  8  9  1  0  0  0  0
  9 10  2  0  0  0  0
 10 11  1  0  0  0  0
 11 12  2  0  0  0  0
 13 14  1  0  0  0  0
 14 16  1  0  0  0  0
 14 15  1  0  0  0  0
 14 30  1  1  0  0  0
 16 18  2  0  0  0  0
 16 17  2  0  0  0  0
 19  4  1  0  0  0  0
 20  4  1  0  0  0  0
 21  6  1  0  0  0  0
 22  6  1  0  0  0  0
 23  8  1  0  0  0  0
 24  9  1  0  0  0  0
 25 10  1  0  0  0  0
 26 11  1  0  0  0  0
 27 12  1  0  0  0  0
 28 13  1  0  0  0  0
 29 13  1  0  0  0  0
 31  3  1  0  0  0  0
 32  3  1  0  0  0  0
 33  3  1  0  0  0  0
 34  1  1  0  0  0  0
 35  1  1  0  0  0  0
 36  1  1  0  0  0  0
 37 15  1  0  0  0  0
 38 15  1  0  0  0  0
 39 15  1  0  0  0  0
M  CHG  1  15   1
M  END
$$$$
